                                   MODFLOW 6
                U.S. GEOLOGICAL SURVEY MODULAR HYDROLOGIC MODEL
                            VERSION 6.0.4 03/13/2019

  MODFLOW 6 compiled Sep 20 2019 01:43:25 with GFORTRAN compiler (ver. 7.4.0)

This software has been approved for release by the U.S. Geological 
Survey (USGS). Although the software has been subjected to rigorous 
review, the USGS reserves the right to update the software as needed 
pursuant to further analysis and review. No warranty, expressed or 
implied, is made by the USGS or the U.S. Government as to the 
functionality of the software and related material nor shall the 
fact of release constitute any such warranty. Furthermore, the 
software is released on condition that neither the USGS nor the U.S. 
Government shall be held liable for any damages resulting from its 
authorized or unauthorized use. Also refer to the USGS Water 
Resources Software User Rights Notice for complete use, copyright, 
and distribution information.


System command used to initiate simulation:
../exe/mf6

MODFLOW was compiled using uniform precision.
Real Variables
  PRECISION: 15
  KIND: 8
  TINY (smallest non-zero value):    2.225074-308
  HUGE (largest value):    1.797693+308
Integer Variables
  KIND: 4
  HUGE (largest value): 2147483647
  BIT_SIZE: 32


 OPENED mfsim.nam
 FILE TYPE:NAM   UNIT 1001   STATUS:OLD                 
 FORMAT:FORMATTED              ACCESS:SEQUENTIAL          
 ACTION:READ                

 # File generated by Flopy version 3.3.2 on 01/02/2021 at 15:39:12.

 READING SIMULATION OPTIONS
 END OF SIMULATION OPTIONS

 READING SIMULATION TIMING

 OPENED Model.tdis
 FILE TYPE:TDIS   UNIT 1002   STATUS:OLD                 
 FORMAT:FORMATTED              ACCESS:SEQUENTIAL          
 ACTION:READ                


 TDIS -- TEMPORAL DISCRETIZATION PACKAGE,
 VERSION 1 : 11/13/2014 - INPUT READ FROM UNIT 1002
 # File generated by Flopy version 3.3.2 on 01/02/2021 at 15:39:12.
 PROCESSING TDIS OPTIONS
    SIMULATION TIME UNIT IS SECONDS
 END OF TDIS OPTIONS
 PROCESSING TDIS DIMENSIONS
    1 STRESS PERIOD(S) IN SIMULATION
 END OF TDIS DIMENSIONS
 PROCESSING TDIS PERIODDATA


 STRESS PERIOD     LENGTH       TIME STEPS     MULTIPLIER FOR DELT
 ----------------------------------------------------------------------------
        1         1.000000          1                    1.000
 END OF TDIS PERIODDATA
 END OF SIMULATION TIMING

 READING SIMULATION MODELS
    GWF6 model MODEL will be created as model 1
 END OF SIMULATION MODELS

 READING SIMULATION EXCHANGES
 END OF SIMULATION EXCHANGES

 READING SOLUTIONGROUP

 Creating solution: SLN_1           

 OPENED Model.ims
 FILE TYPE:IMS   UNIT 1012   STATUS:OLD                 
 FORMAT:FORMATTED              ACCESS:SEQUENTIAL          
 ACTION:READ                

 END OF SIMULATION SOLUTIONGROUP

 IMS -- ITERATIVE MODEL SOLUTION PACKAGE, VERSION 6, 4/28/2017
         INPUT READ FROM UNIT 1012
 # File generated by Flopy version 3.3.2 on 01/02/2021 at 15:39:12.

 PROCESSING IMS OPTIONS
 COMPLEX OPTION:
 DEFAULT SOLVER INPUT VALUES REFLECT STRONGLY NONLINEAR MODEL
 END OF IMS OPTIONS

 PROCESSING IMS NONLINEAR
 END OF IMS NONLINEAR DATA
 **UNDER-RELAXATION WILL BE USED***

 ***IMS LINEAR SOLVER WILL BE USED***

 IMSLINEAR -- UNSTRUCTURED LINEAR SOLUTION PACKAGE, VERSION 8, 04/28/2017

 PROCESSING LINEAR DATA
 END OF LINEAR DATA

 OUTER ITERATION CONVERGENCE CRITERION     (HCLOSE) =    0.100000E-01
 OUTER ITERATION BOUNDARY FLOW RESIDUAL (RCLOSEBND) =    0.100000E+00
 MAXIMUM NUMBER OF OUTER ITERATIONS        (MXITER) =       100
 SOLVER PRINTOUT INDEX                     (IPRIMS) =         1
 NONLINEAR ITERATION METHOD            (NONLINMETH) =         3
 LINEAR SOLUTION METHOD                   (LINMETH) =         1
 UNDER-RELAXATION WEIGHT REDUCTION FACTOR   (THETA) =    0.800000E+00
 UNDER-RELAXATION WEIGHT INCREASE INCREMENT (KAPPA) =    0.100000E-03
 UNDER-RELAXATION PREVIOUS HISTORY FACTOR   (GAMMA) =    0.000000E+00
 UNDER-RELAXATIONMOMENTUM TERM          (AMOMENTUM) =    0.000000E+00
    MAXIMUM NUMBER OF BACKTRACKS         (NUMTRACK) =        20
 BACKTRACKING TOLERANCE FACTOR               (BTOL) =    0.105000E+01
 BACKTRACKING REDUCTION FACTOR             (BREDUC) =    0.100000E+00
 BACKTRACKING RESIDUAL LIMIT              (RES_LIM) =    0.200000E-02

       SOLUTION BY THE BICONJUGATE-GRADIENT STABILIZED METHOD
 ------------------------------------------------------------------
 MAXIMUM OF    100 CALLS OF SOLUTION ROUTINE
 MAXIMUM OF    500 INTERNAL ITERATIONS PER CALL TO SOLUTION ROUTINE
 LINEAR ACCELERATION METHOD            = BCGS      
 MATRIX PRECONDITIONING TYPE           = INCOMPLETE LUT      
 MATRIX SCALING APPROACH               = NO SCALING          
 MATRIX REORDERING APPROACH            = ORIGINAL ORDERING        
 NUMBER OF ORTHOGONALIZATIONS          =        2
 HEAD CHANGE CRITERION FOR CLOSURE     =    0.10000E-01
 RESIDUAL CHANGE CRITERION FOR CLOSURE =    0.10000E+00
 RESIDUAL CONVERGENCE OPTION           =        0
 RESIDUAL CONVERGENCE NORM             = INFINITY NORM   
 RELAXATION FACTOR                     =    0.00000E+00
 NUMBER OF LEVELS                      =              5
 DROP TOLERANCE                        =    0.10000E-03


1
                            STRESS PERIOD NO.    1, LENGTH =   1.000000    
                            -----------------------------------------------

                              NUMBER OF TIME STEPS =     1

                               MULTIPLIER FOR DELT =     1.000

                            INITIAL TIME STEP SIZE =   1.000000    


 OUTER ITERATION SUMMARY
 -------------------------------------------------------------------------------------------------------------------------------------------
                       OUTER     INNER BACKTRACK BACKTRACK        INCOMING        OUTGOING         MAXIMUM                    MAXIMUM CHANGE
                   ITERATION ITERATION      FLAG    NUMBER        RESIDUAL        RESIDUAL          CHANGE                    MODEL-(CELLID)
 -------------------------------------------------------------------------------------------------------------------------------------------
 Backtracking              1                   0         0     9.56147         9.56147    
 Linear Solver             1        65                                                        -1277.13                        1_GWF-(1,3764)
 Under-relaxation          1                                                                  -1277.13                        1_GWF-(1,3764)
 Backtracking              2                   0         0    0.703683        0.703683    
 Linear Solver             2        54                                                        -212.720                        1_GWF-(3,3301)
 Under-relaxation          2                                                                  -212.720                        1_GWF-(3,3301)
 Backtracking              3                   0         0    0.332819        0.332819    
 Linear Solver             3        65                                                         385.892                          1_GWF-(4,24)
 Under-relaxation          3                                                                   308.713                          1_GWF-(4,24)
 Backtracking              4                   0         0    0.239923        0.239923    
 Linear Solver             4        52                                                         110.652                        1_GWF-(4,3873)
 Under-relaxation          4                                                                   88.5215                        1_GWF-(4,3873)
 Backtracking              5                   0         0    0.145459        0.145459    
 Linear Solver             5        40                                                         62.7750                        1_GWF-(3,3997)
 Under-relaxation          5                                                                   50.2200                        1_GWF-(3,3997)
 Backtracking              6                   0         0    8.771984E-02    8.771984E-02
 Linear Solver             6        38                                                        -26.1265                        1_GWF-(3,3513)
 Under-relaxation          6                                                                  -16.7210                        1_GWF-(3,3513)
 Backtracking              7                   0         0    3.655131E-02    3.655131E-02
 Linear Solver             7        41                                                        -40.6968                         1_GWF-(4,104)
 Under-relaxation          7                                                                  -16.6720                         1_GWF-(4,104)
 Backtracking              8                   0         0    1.935191E-02    1.935191E-02
 Linear Solver             8        15                                                         17.7131                         1_GWF-(4,107)
 Under-relaxation          8                                                                   8.45637                           1_GWF-(3,1)
 Backtracking              9                   0         0    1.723499E-02    1.723499E-02
 Linear Solver             9        30                                                        -18.0230                           1_GWF-(3,1)
 Under-relaxation          9                                                                  -7.38221                           1_GWF-(3,1)
 Backtracking             10                   0         0    9.759277E-03    9.759277E-03
 Linear Solver            10        23                                                         5.63731                           1_GWF-(1,2)
 Under-relaxation         10                                                                   1.84723                           1_GWF-(1,2)
 Backtracking             11                   0         0    6.968594E-03    6.968594E-03
 Linear Solver            11        22                                                        -2.94145                        1_GWF-(4,4365)
 Under-relaxation         11                                                                 -0.771792                        1_GWF-(4,4365)
 Backtracking             12                   0         0    4.509210E-03    4.509210E-03
 Linear Solver            12         8                                                        -2.29768                        1_GWF-(4,4365)
 Under-relaxation         12                                                                 -0.603106                        1_GWF-(4,4365)
 Backtracking             13                   0         0    3.315389E-03    3.315389E-03
 Linear Solver            13        11                                                        -1.68654                        1_GWF-(4,4365)
 Under-relaxation         13                                                                 -0.442860                        1_GWF-(4,4365)
 Backtracking             14                   0         0    2.494949E-03    2.494949E-03
 Linear Solver            14        11                                                        -1.24057                        1_GWF-(4,4365)
 Under-relaxation         14                                                                 -0.325879                        1_GWF-(4,4365)
 Backtracking             15                   0         0    1.917530E-03    1.917530E-03
 Linear Solver            15        16                                                       -0.867179                        1_GWF-(4,4365)
 Under-relaxation         15                                                                 -0.227882                        1_GWF-(4,4365)
 Backtracking             16                   0         0    1.536747E-03    1.536747E-03
 Linear Solver            16        18                                                       -0.621312                        1_GWF-(4,4365)
 Under-relaxation         16                                                                 -0.163334                        1_GWF-(4,4365)
 Backtracking             17                   0         0    1.257681E-03    1.257681E-03
 Linear Solver            17        12                                                       -0.491914                        1_GWF-(4,4365)
 Under-relaxation         17                                                                 -0.129366                        1_GWF-(4,4365)
 Backtracking             18                   0         0    1.008861E-03    1.008861E-03
 Linear Solver            18         6                                                       -0.368843                        1_GWF-(4,4365)
 Under-relaxation         18                                                                 -9.703703E-02                    1_GWF-(4,4365)
 Backtracking             19                   0         0    7.803618E-04    7.803618E-04
 Linear Solver            19        13                                                        0.269274                          1_GWF-(4,90)
 Under-relaxation         19                                                                 -6.649657E-02                    1_GWF-(4,4365)
 Backtracking             20                   0         0    6.424008E-04    6.424008E-04
 Linear Solver            20         5                                                       -0.199688                        1_GWF-(4,4365)
 Under-relaxation         20                                                                 -5.257482E-02                    1_GWF-(4,4365)
 Backtracking             21                   0         0    4.944150E-04    4.944150E-04
 Linear Solver            21         5                                                        0.156482                          1_GWF-(4,90)
 Under-relaxation         21                                                                 -3.865485E-02                    1_GWF-(4,4365)
 Backtracking             22                   0         0    3.867930E-04    3.867930E-04
 Linear Solver            22         5                                                        0.124438                          1_GWF-(4,90)
 Under-relaxation         22                                                                 -2.834165E-02                    1_GWF-(4,4365)
 Backtracking             23                   0         0    3.066785E-04    3.066785E-04
 Linear Solver            23         5                                                        9.937113E-02                      1_GWF-(4,90)
 Under-relaxation         23                                                                  2.097208E-02                      1_GWF-(4,90)
 Backtracking             24                   0         0    2.461720E-04    2.461720E-04
 Linear Solver            24         4                                                        7.786799E-02                      1_GWF-(4,90)
 Under-relaxation         24                                                                  1.644167E-02                      1_GWF-(4,90)
 Backtracking             25                   0         0    1.983591E-04    1.983591E-04
 Linear Solver            25         4                                                        6.267512E-02                      1_GWF-(4,90)
 Under-relaxation         25                                                                  1.323999E-02                      1_GWF-(4,90)
 Backtracking             26                   0         0    1.620784E-04    1.620784E-04
 Linear Solver            26         3                                                        4.572519E-02                      1_GWF-(4,90)
 Under-relaxation         26                                                                  9.663925E-03                      1_GWF-(4,90)
 Backtracking             27                   0         0    1.323425E-04    1.323425E-04
 Linear Solver            27         2                                                        3.125628E-02                     1_GWF-(5,104)
 Under-relaxation         27                                                                  6.609076E-03                     1_GWF-(5,104)
 Backtracking             28                   0         0    1.081834E-04    1.081834E-04
 Linear Solver            28         2                                                        2.565728E-02                     1_GWF-(5,104)
 Under-relaxation         28                                                                  5.427746E-03                     1_GWF-(5,104)
 Backtracking             29                   0         0    8.950304E-05    8.950304E-05
 Linear Solver            29         2                                                        2.116469E-02                     1_GWF-(5,104)
 Under-relaxation         29                                                                  4.479463E-03                     1_GWF-(5,104)
 Backtracking             30                   0         0    7.485973E-05    7.485973E-05
 Linear Solver            30         2                                                        1.767716E-02                      1_GWF-(4,90)
 Under-relaxation         30                                                                  3.743102E-03                      1_GWF-(4,90)
 Backtracking             31                   0         0    6.333672E-05    6.333672E-05
 Linear Solver            31         2                                                        1.486366E-02                      1_GWF-(4,90)
 Under-relaxation         31                                                                  3.148837E-03                      1_GWF-(4,90)
 Backtracking             32                   0         0    5.426904E-05    5.426904E-05
 Linear Solver            32         1                                                        8.306924E-03                    1_GWF-(4,5170)

 32 CALLS TO NUMERICAL SOLUTION IN TIME STEP 1 STRESS PERIOD 1
 582 TOTAL ITERATIONS

 INFORMATION ON VARIABLES STORED IN THE MEMORY MANAGER

 Number of allocated integer variables:   2879114
 Number of allocated real variables:    2829262
 Allocated memory in megabytes:     34.1506    


 Run end date and time (yyyy/mm/dd hh:mm:ss): 2021/01/02 15:39:18
 Elapsed run time:  4.157 Seconds

 Normal termination of simulation.
