                                   MODFLOW 6
                U.S. GEOLOGICAL SURVEY MODULAR HYDROLOGIC MODEL
                            VERSION 6.2.0 10/22/2020

   MODFLOW 6 compiled Oct 22 2020 09:26:42 with IFORT compiler (ver. 19.10.2)

This software has been approved for release by the U.S. Geological 
Survey (USGS). Although the software has been subjected to rigorous 
review, the USGS reserves the right to update the software as needed 
pursuant to further analysis and review. No warranty, expressed or 
implied, is made by the USGS or the U.S. Government as to the 
functionality of the software and related material nor shall the 
fact of release constitute any such warranty. Furthermore, the 
software is released on condition that neither the USGS nor the U.S. 
Government shall be held liable for any damages resulting from its 
authorized or unauthorized use. Also refer to the USGS Water 
Resources Software User Rights Notice for complete use, copyright, 
and distribution information.


System command used to initiate simulation:
../exe/mf6.exe

MODFLOW was compiled using uniform precision.

Real Variables
  KIND: 8
  TINY (smallest non-zero value):    2.225074-308
  HUGE (largest value):    1.797693+308
  PRECISION: 15
  BIT SIZE: 64

Integer Variables
  KIND: 4
  HUGE (largest value): 2147483647
  BIT SIZE: 32

Long Integer Variables
  KIND: 8
  HUGE (largest value): 9223372036854775807
  BIT SIZE: 64

Logical Variables
  KIND: 4
  BIT SIZE: 32
 

 OPENED mfsim.nam
 FILE TYPE:NAM   UNIT 1001   STATUS:OLD                 
 FORMAT:FORMATTED              ACCESS:SEQUENTIAL          
 ACTION:READ                

 # File generated by Flopy version 3.3.2 on 11/01/2020 at 08:31:24.

 READING SIMULATION OPTIONS
 END OF SIMULATION OPTIONS

 READING SIMULATION TIMING

 OPENED Model.tdis
 FILE TYPE:TDIS   UNIT 1002   STATUS:OLD                 
 FORMAT:FORMATTED              ACCESS:SEQUENTIAL          
 ACTION:READ                


 TDIS -- TEMPORAL DISCRETIZATION PACKAGE,
 VERSION 1 : 11/13/2014 - INPUT READ FROM UNIT 1002
 # File generated by Flopy version 3.3.2 on 11/01/2020 at 08:31:24.
 PROCESSING TDIS OPTIONS
    SIMULATION TIME UNIT IS SECONDS
 END OF TDIS OPTIONS
 PROCESSING TDIS DIMENSIONS
    1 STRESS PERIOD(S) IN SIMULATION
 END OF TDIS DIMENSIONS
 PROCESSING TDIS PERIODDATA


 STRESS PERIOD     LENGTH       TIME STEPS     MULTIPLIER FOR DELT
 ----------------------------------------------------------------------------
        1         1.000000          1                    1.000
 END OF TDIS PERIODDATA
 END OF SIMULATION TIMING

 READING SIMULATION MODELS
    GWF6 model MODEL will be created as model 1
 END OF SIMULATION MODELS

 READING SIMULATION EXCHANGES
 END OF SIMULATION EXCHANGES

 READING SOLUTIONGROUP

 Creating solution: SLN_1           

 OPENED Model.ims
 FILE TYPE:IMS   UNIT 1012   STATUS:OLD                 
 FORMAT:FORMATTED              ACCESS:SEQUENTIAL          
 ACTION:READ                

 END OF SIMULATION SOLUTIONGROUP

 IMS -- ITERATIVE MODEL SOLUTION PACKAGE, VERSION 6, 4/28/2017
         INPUT READ FROM UNIT 1012
 # File generated by Flopy version 3.3.2 on 11/01/2020 at 08:31:24.

 PROCESSING IMS OPTIONS
 COMPLEX OPTION:
 DEFAULT SOLVER INPUT VALUES REFLECT STRONGLY NONLINEAR MODEL
 END OF IMS OPTIONS

 PROCESSING IMS NONLINEAR
 END OF IMS NONLINEAR DATA
 **UNDER-RELAXATION WILL BE USED***
 
 ***IMS LINEAR SOLVER WILL BE USED***

 IMSLINEAR -- UNSTRUCTURED LINEAR SOLUTION PACKAGE, VERSION 8, 04/28/2017

 PROCESSING LINEAR DATA
 END OF LINEAR DATA
 
 OUTER ITERATION CONVERGENCE CRITERION    (DVCLOSE) =    0.100000E-01
 MAXIMUM NUMBER OF OUTER ITERATIONS        (MXITER) = 100
 SOLVER PRINTOUT INDEX                     (IPRIMS) = 1
 NONLINEAR ITERATION METHOD            (NONLINMETH) = 3
 LINEAR SOLUTION METHOD                   (LINMETH) = 1
 UNDER-RELAXATION WEIGHT REDUCTION FACTOR   (THETA) =    0.800000E+00
 UNDER-RELAXATION WEIGHT INCREASE INCREMENT (KAPPA) =    0.100000E-03
 UNDER-RELAXATION PREVIOUS HISTORY FACTOR   (GAMMA) =    0.000000E+00
 UNDER-RELAXATION MOMENTUM TERM         (AMOMENTUM) =    0.000000E+00
 MAXIMUM NUMBER OF BACKTRACKS            (NUMTRACK) = 20
 BACKTRACKING TOLERANCE FACTOR               (BTOL) =    0.105000E+01
 BACKTRACKING REDUCTION FACTOR             (BREDUC) =    0.100000E+00
 BACKTRACKING RESIDUAL LIMIT              (RES_LIM) =    0.200000E-02

       SOLUTION BY THE BICONJUGATE-GRADIENT STABILIZED METHOD
 ------------------------------------------------------------------
 MAXIMUM OF 100 CALLS OF SOLUTION ROUTINE
 MAXIMUM OF 500 INTERNAL ITERATIONS PER CALL TO SOLUTION ROUTINE
 LINEAR ACCELERATION METHOD            = BCGS      
 MATRIX PRECONDITIONING TYPE           = INCOMPLETE LUT      
 MATRIX SCALING APPROACH               = NO SCALING          
 MATRIX REORDERING APPROACH            = ORIGINAL ORDERING        
 NUMBER OF ORTHOGONALIZATIONS          = 2
 HEAD CHANGE CRITERION FOR CLOSURE     =    0.10000E-01
 RESIDUAL CHANGE CRITERION FOR CLOSURE =    0.10000E+00
 RESIDUAL CONVERGENCE OPTION           = 0
 RESIDUAL CONVERGENCE NORM             = INFINITY NORM   
 RELAXATION FACTOR                     =    0.00000E+00
 NUMBER OF LEVELS                      =              5
 DROP TOLERANCE                        =    0.10000E-03


1
                            STRESS PERIOD NO.    1, LENGTH =   1.000000    
                            -----------------------------------------------

                              NUMBER OF TIME STEPS =     1

                               MULTIPLIER FOR DELT =     1.000

                            INITIAL TIME STEP SIZE =   1.000000    

 OUTER ITERATION SUMMARY
 ----------------------------------------------------------------------------------------------------------------------------------------------------------------
                                OUTER      INNER  BACKTRACK  BACKTRACK        INCOMING        OUTGOING                    STEP   MAXIMUM CHANGE MODEL-(CELLID) OR
 OUTER ITERATION STEP       ITERATION  ITERATION       FLAG ITERATIONS        RESIDUAL        RESIDUAL  MAXIMUM CHANGE SUCCESS             MODEL-PACKAGE-(NUMBER)
 ----------------------------------------------------------------------------------------------------------------------------------------------------------------
 Backtracking                       1                     0          0       26.975338       26.975338                       *                                   
 Model                              1         65                                                            -1390.2355                            1_GWF-(1,42277)
 Backtracking                       2                     0          0       1.2776094       1.2776094                       *                                   
 Model                              2        163                                                            -242.66887                            1_GWF-(1,14144)
 Backtracking                       3                     0          0      0.39966192      0.39966192                       *                                   
 Model                              3         87                                                            -171.35095                             1_GWF-(2,7142)
 Backtracking                       4                     0          0      0.16260526      0.16260526                       *                                   
 Model                              4        141                                                             96.274930                             1_GWF-(3,5021)
 Backtracking                       5                     0          0      0.14426357      0.14426357                       *                                   
 Model                              5         65                                                            -58.782208                            1_GWF-(1,40994)
 Backtracking                       6                     0          0      0.10474201      0.10474201                       *                                   
 Model                              6        120                                                             49.497478                            1_GWF-(3,31450)
 Backtracking                       7                     0          0  4.28663747E-02  4.28663747E-02                       *                                   
 Model                              7         60                                                             85.998291                            1_GWF-(3,44802)
 Backtracking                       8                     1          1      0.10106022  4.14200058E-02                                                           
 Model                              8        135                                                             66.585893                            1_GWF-(3,47992)
 Backtracking                       9                     1          1  5.99735566E-02  3.94256740E-02                                                           
 Model                              9         56                                                             53.761390                            1_GWF-(3,46749)
 Backtracking                      10                     0          0  3.39799986E-02  3.39799986E-02                       *                                   
 Model                             10         49                                                            -18.618402                            1_GWF-(3,44755)
 Backtracking                      11                     1          1  8.37996272E-02  3.22844857E-02                                                           
 Model                             11         43                                                            -18.348155                            1_GWF-(3,44755)
 Backtracking                      12                     1          1  7.69383255E-02  3.21257231E-02                                                           
 Model                             12         51                                                            -17.576772                            1_GWF-(3,44755)
 Backtracking                      13                     1          1  7.17646872E-02  3.29339109E-02                                                           
 Model                             13         48                                                            -16.915028                            1_GWF-(3,44755)
 Backtracking                      14                     1          1  6.71488825E-02  3.41985887E-02                                                           
 Model                             14         43                                                            -16.208925                            1_GWF-(3,44755)
 Backtracking                      15                     1          1  6.24077076E-02  3.55475502E-02                                                           
 Model                             15         47                                                            -15.280750                            1_GWF-(3,44755)
 Backtracking                      16                     1          1  5.86296390E-02  3.68139568E-02                                                           
 Model                             16         44                                                            -14.445889                            1_GWF-(3,44755)
 Backtracking                      17                     1          1  5.51004257E-02  3.79033988E-02                                                           
 Model                             17         44                                                            -13.575751                            1_GWF-(3,44755)
 Backtracking                      18                     1          1  5.18670063E-02  3.87669399E-02                                                           
 Model                             18         28                                                            -12.710554                            1_GWF-(3,44755)
 Backtracking                      19                     1          1  4.80978439E-02  3.93208775E-02                                                           
 Model                             19         34                                                            -11.825597                            1_GWF-(3,44755)
 Backtracking                      20                     1          1  4.54896636E-02  3.96509908E-02                                                           
 Model                             20         24                                                            -10.923057                            1_GWF-(3,44755)
 Backtracking                      21                     1          1  4.22510224E-02  3.97050883E-02                                                           
 Model                             21         24                                                            -10.113272                            1_GWF-(3,44755)
 Backtracking                      22                     0          0  4.00469861E-02  4.00469861E-02                       *                                   
 Model                             22         23                                                            -3.2448520                            1_GWF-(3,48693)
 Backtracking                      23                     0          0  2.36535953E-02  2.36535953E-02                       *                                   
 Model                             23         15                                                            -2.0741990                                1_GWF-(1,2)
 Backtracking                      24                     0          0  1.50962808E-02  1.50962808E-02                       *                                   
 Model                             24          7                                                           -0.52836937                              1_GWF-(2,653)
 Backtracking                      25                     0          0  8.62929472E-03  8.62929472E-03                       *                                   
 Model                             25         21                                                            -1.4558198                            1_GWF-(3,41258)
 Backtracking                      26                     0          0  7.50585703E-03  7.50585703E-03                       *                                   
 Model                             26         20                                                           -0.75151437                             1_GWF-(4,1863)
 Backtracking                      27                     1          1  1.09858665E-02  7.71846099E-03                                                           
 Model                             27         20                                                           -0.74004829                             1_GWF-(4,1863)
 Backtracking                      28                     1          1  1.15186388E-02  7.97982472E-03                                                           
 Model                             28          7                                                           -0.26545933                             1_GWF-(3,1270)
 Backtracking                      29                     0          0  4.94113710E-03  4.94113710E-03                       *                                   
 Model                             29          7                                                           -0.16031056                             1_GWF-(3,1270)
 Backtracking                      30                     0          0  3.35926131E-03  3.35926131E-03                       *                                   
 Model                             30         21                                                           -0.55871279                             1_GWF-(4,1863)
 Backtracking                      31                     4          1  9.83877073E-03  3.66037839E-03                                                           
 Model                             31         13                                                           -0.32545234                            1_GWF-(3,11298)
 Backtracking                      32                     4          0  4.36544383E-03  4.36544383E-03                       *                                   
 Model                             32          4                                                            0.10934225                             1_GWF-(5,1277)
 Backtracking                      33                     0          0  3.23411107E-03  3.23411107E-03                       *                                   
 Model                             33          4                                                            0.10163394                             1_GWF-(5,1277)
 Backtracking                      34                     0          0  2.54569504E-03  2.54569504E-03                       *                                   
 Model                             34          3                                                        9.35162839E-02                             1_GWF-(5,1277)
 Backtracking                      35                     0          0  2.07458041E-03  2.07458041E-03                       *                                   
 Model                             35          3                                                        8.77901765E-02                             1_GWF-(5,1277)
 Backtracking                      36                     0          0  1.74633180E-03  1.74633180E-03                       *                                   
 Model                             36          5                                                        8.14005224E-02                             1_GWF-(5,1277)
 Backtracking                      37                     0          0  1.56947382E-03  1.56947382E-03                       *                                   
 Model                             37          5                                                        7.42525050E-02                             1_GWF-(5,1277)
 Backtracking                      38                     0          0  1.49545022E-03  1.49545022E-03                       *                                   
 Model                             38          2                                                        6.74173598E-02                             1_GWF-(5,1277)
 Backtracking                      39                     0          0  1.29908257E-03  1.29908257E-03                       *                                   
 Model                             39          2                                                        6.32753136E-02                             1_GWF-(5,1277)
 Backtracking                      40                     0          0  1.14954134E-03  1.14954134E-03                       *                                   
 Model                             40          2                                                        5.94021022E-02                             1_GWF-(5,1277)
 Backtracking                      41                     0          0  1.03061555E-03  1.03061555E-03                       *                                   
 Model                             41          2                                                        5.57998441E-02                             1_GWF-(5,1277)
 Backtracking                      42                     0          0  9.33556791E-04  9.33556791E-04                       *                                   
 Model                             42          2                                                        5.24633300E-02                             1_GWF-(5,1277)
 Backtracking                      43                     0          0  8.52927726E-04  8.52927726E-04                       *                                   
 Model                             43          2                                                        4.93754956E-02                             1_GWF-(5,1277)
 Backtracking                      44                     0          0  7.85121617E-04  7.85121617E-04                       *                                   
 Model                             44          2                                                        4.65100754E-02                             1_GWF-(5,1277)
 Backtracking                      45                     0          0  7.27600849E-04  7.27600849E-04                       *                                   
 Model                             45          2                                                        4.38379456E-02                             1_GWF-(5,1277)
 Backtracking                      46                     0          0  6.78502733E-04  6.78502733E-04                       *                                   
 Model                             46          2                                                        4.13321771E-02                             1_GWF-(5,1277)
 Backtracking                      47                     0          0  6.36384535E-04  6.36384535E-04                       *                                   
 Model                             47          2                                                        3.89705567E-02                             1_GWF-(5,1277)
 Backtracking                      48                     0          0  6.00029112E-04  6.00029112E-04                       *                                   
 Model                             48          2                                                        3.67360527E-02                             1_GWF-(5,1277)
 Backtracking                      49                     0          0  5.68525921E-04  5.68525921E-04                       *                                   
 Model                             49          2                                                        3.46167141E-02                             1_GWF-(5,1277)
 Backtracking                      50                     0          0  5.41115816E-04  5.41115816E-04                       *                                   
 Model                             50          2                                                        3.26032044E-02                             1_GWF-(5,1277)
 Backtracking                      51                     0          0  5.17176288E-04  5.17176288E-04                       *                                   
 Model                             51          2                                                        3.06880289E-02                             1_GWF-(5,1277)
 Backtracking                      52                     0          0  4.96248741E-04  4.96248741E-04                       *                                   
 Model                             52          2                                                        2.88655852E-02                             1_GWF-(5,1277)
 Backtracking                      53                     0          0  4.77943888E-04  4.77943888E-04                       *                                   
 Model                             53          2                                                        2.71315352E-02                             1_GWF-(5,1277)
 Backtracking                      54                     0          0  4.61926788E-04  4.61926788E-04                       *                                   
 Model                             54          2                                                        2.54823342E-02                             1_GWF-(5,1277)
 Backtracking                      55                     0          0  4.47906625E-04  4.47906625E-04                       *                                   
 Model                             55          2                                                        2.39149152E-02                             1_GWF-(5,1277)
 Backtracking                      56                     0          0  4.35628682E-04  4.35628682E-04                       *                                   
 Model                             56          2                                                        2.24264794E-02                             1_GWF-(5,1277)
 Backtracking                      57                     0          0  4.24872731E-04  4.24872731E-04                       *                                   
 Model                             57          2                                                        2.10142983E-02                             1_GWF-(5,1277)
 Backtracking                      58                     0          0  4.15446702E-04  4.15446702E-04                       *                                   
 Model                             58          2                                                        1.96756303E-02                             1_GWF-(5,1277)
 Backtracking                      59                     0          0  4.07183175E-04  4.07183175E-04                       *                                   
 Model                             59          2                                                        1.84076598E-02                             1_GWF-(5,1277)
 Backtracking                      60                     0          0  3.99936507E-04  3.99936507E-04                       *                                   
 Model                             60          2                                                        1.72074955E-02                             1_GWF-(5,1277)
 Backtracking                      61                     0          0  3.93580218E-04  3.93580218E-04                       *                                   
 Model                             61          2                                                        1.60721979E-02                             1_GWF-(5,1277)
 Backtracking                      62                     0          0  3.88004585E-04  3.88004585E-04                       *                                   
 Model                             62          2                                                       -1.56645485E-02                            1_GWF-(3,35053)
 Backtracking                      63                     0          0  3.83114441E-04  3.83114441E-04                       *                                   
 Model                             63          2                                                       -1.53887286E-02                            1_GWF-(3,35053)
 Backtracking                      64                     0          0  3.78827160E-04  3.78827160E-04                       *                                   
 Model                             64          2                                                       -1.51177792E-02                            1_GWF-(3,35053)
 Backtracking                      65                     0          0  3.75070926E-04  3.75070926E-04                       *                                   
 Model                             65          2                                                       -1.48524412E-02                            1_GWF-(3,35053)
 Backtracking                      66                     0          0  3.71783076E-04  3.71783076E-04                       *                                   
 Model                             66          2                                                       -1.45932897E-02                            1_GWF-(3,35053)
 Backtracking                      67                     0          0  3.68908831E-04  3.68908831E-04                       *                                   
 Model                             67          2                                                       -1.43407509E-02                            1_GWF-(3,35053)
 Backtracking                      68                     0          0  3.66400143E-04  3.66400143E-04                       *                                   
 Model                             68          1                                                        9.41248727E-03       *                     1_GWF-(5,1277)
 ----------------------------------------------------------------------------------------------------------------------------------------------------------------


 68 CALLS TO NUMERICAL SOLUTION IN TIME STEP 1 STRESS PERIOD 1
 1610 TOTAL ITERATIONS

 MEMORY MANAGER TOTAL STORAGE BY DATA TYPE, IN MEGABYTES
 -------------------------------
                    ALLOCATED   
 DATA TYPE           MEMORY     
 -------------------------------
 Character        2.03300000E-03
 Logical          4.40000000E-05
 Integer          98.415320     
 Real             193.62034     
 -------------------------------
 Total            292.03774     
 -------------------------------


 
 Run end date and time (yyyy/mm/dd hh:mm:ss): 2020/11/01  8:33:02
 Elapsed run time:  1 Minutes, 27.015 Seconds

WARNING REPORT:

  1. NONLINEAR BLOCK VARIABLE 'OUTER_HCLOSE' IN FILE 'Model.ims' WAS
     DEPRECATED IN VERSION 6.1.1. SETTING OUTER_DVCLOSE TO OUTER_HCLOSE VALUE.
  2. LINEAR BLOCK VARIABLE 'INNER_HCLOSE' IN FILE 'Model.ims' WAS DEPRECATED
     IN VERSION 6.1.1. SETTING INNER_DVCLOSE TO INNER_HCLOSE VALUE.
 Normal termination of simulation.
