                                   MODFLOW 6
                U.S. GEOLOGICAL SURVEY MODULAR HYDROLOGIC MODEL
                          GROUNDWATER FLOW MODEL (GWF)
                            VERSION 6.2.0 10/22/2020

   MODFLOW 6 compiled Oct 22 2020 09:26:42 with IFORT compiler (ver. 19.10.2)

This software has been approved for release by the U.S. Geological 
Survey (USGS). Although the software has been subjected to rigorous 
review, the USGS reserves the right to update the software as needed 
pursuant to further analysis and review. No warranty, expressed or 
implied, is made by the USGS or the U.S. Government as to the 
functionality of the software and related material nor shall the 
fact of release constitute any such warranty. Furthermore, the 
software is released on condition that neither the USGS nor the U.S. 
Government shall be held liable for any damages resulting from its 
authorized or unauthorized use. Also refer to the USGS Water 
Resources Software User Rights Notice for complete use, copyright, 
and distribution information.


System command used to initiate simulation:
../exe/mf6.exe

MODFLOW was compiled using uniform precision.

Real Variables
  KIND: 8
  TINY (smallest non-zero value):    2.225074-308
  HUGE (largest value):    1.797693+308
  PRECISION: 15
  BIT SIZE: 64

Integer Variables
  KIND: 4
  HUGE (largest value): 2147483647
  BIT SIZE: 32

Long Integer Variables
  KIND: 8
  HUGE (largest value): 9223372036854775807
  BIT SIZE: 64

Logical Variables
  KIND: 4
  BIT SIZE: 32
 

 OPENED Model.disv
 FILE TYPE:DISV6                  UNIT 1005   STATUS:OLD                 
 FORMAT:FORMATTED              ACCESS:SEQUENTIAL          
 ACTION:READ                


 OPENED Model.npf
 FILE TYPE:NPF6                   UNIT 1006   STATUS:OLD                 
 FORMAT:FORMATTED              ACCESS:SEQUENTIAL          
 ACTION:READ                


 OPENED Model.ic
 FILE TYPE:IC6                    UNIT 1007   STATUS:OLD                 
 FORMAT:FORMATTED              ACCESS:SEQUENTIAL          
 ACTION:READ                


 OPENED Model.rcha
 FILE TYPE:RCH6                   UNIT 1008   STATUS:OLD                 
 FORMAT:FORMATTED              ACCESS:SEQUENTIAL          
 ACTION:READ                


 OPENED Model.evta
 FILE TYPE:EVT6                   UNIT 1009   STATUS:OLD                 
 FORMAT:FORMATTED              ACCESS:SEQUENTIAL          
 ACTION:READ                


 OPENED Model.drn
 FILE TYPE:DRN6                   UNIT 1010   STATUS:OLD                 
 FORMAT:FORMATTED              ACCESS:SEQUENTIAL          
 ACTION:READ                


 OPENED Model.oc
 FILE TYPE:OC6                    UNIT 1011   STATUS:OLD                 
 FORMAT:FORMATTED              ACCESS:SEQUENTIAL          
 ACTION:READ                

 NAMEFILE OPTIONS:
    FLOWS WILL BE SAVED TO BUDGET FILE SPECIFIED IN OUTPUT CONTROL

 DISV -- VERTEX GRID DISCRETIZATION PACKAGE, VERSION 1 : 12/23/2015 - INPUT READ FROM UNIT 1005


 # File generated by Flopy version 3.3.2 on 11/01/2020 at 08:31:24.

 PROCESSING DISCRETIZATION OPTIONS
   MODEL LENGTH UNIT IS UNDEFINED
 END OF DISCRETIZATION OPTIONS

 PROCESSING DISCRETIZATION DIMENSIONS
   NLAY = 6
   NCPL = 49526
   NVERT = 99154
 END OF DISCRETIZATION DIMENSIONS

 PROCESSING GRIDDATA
 END PROCESSING GRIDDATA

 PROCESSING VERTICES
   SUCCESSFULLY READ 99154 (X,Y) COORDINATES
   MINIMUM X COORDINATE =     613882.507000000    
   MAXIMUM X COORDINATE =     635562.672000000    
   MINIMUM Y COORDINATE =     8348920.07000000    
   MAXIMUM Y COORDINATE =     8375404.95000000    
 END PROCESSING VERTICES

 PROCESSING CELL2D
   SUCCESSFULLY READ 49526 CELL2D INFORMATION ENTRIES
   MINIMUM X CELL CENTER =     614088.685000000    
   MAXIMUM X CELL CENTER =     635545.971000000    
   MINIMUM Y CELL CENTER =     8349231.15000000    
   MAXIMUM Y CELL CENTER =     8375225.64000000    
   MAXIMUM NUMBER OF CELL2D VERTICES IS 12 FOR CELL 746
 END PROCESSING VERTICES

 NPF -- NODE PROPERTY FLOW PACKAGE, VERSION 1, 3/30/2015 INPUT READ FROM UNIT 1006


 # File generated by Flopy version 3.3.2 on 11/01/2020 at 08:31:33.
 PROCESSING NPF OPTIONS
    SPECIFIC DISCHARGE WILL BE CALCULATED AT CELL CENTERS AND WRITTEN TO DATA-SPDIS IN BUDGET FILE WHEN REQUESTED.
 END OF NPF OPTIONS

 DRN   -- DRN PACKAGE, VERSION 8, 2/22/2014 INPUT READ FROM UNIT 1010
 # File generated by Flopy version 3.3.2 on 11/01/2020 at 08:31:33.

 PROCESSING DRN OPTIONS
 END OF DRN OPTIONS

 PROCESSING DRN DIMENSIONS
    MAXBOUND =   10185
 END OF DRN DIMENSIONS

 RCH   -- RCH PACKAGE, VERSION 8, 2/22/2014 INPUT READ FROM UNIT 1008
 # File generated by Flopy version 3.3.2 on 11/01/2020 at 08:31:33.

 PROCESSING RCH OPTIONS
    RECHARGE INPUT WILL BE READ AS ARRAY(S).
 END OF RCH OPTIONS

 EVT   -- EVT PACKAGE, VERSION 8, 2/22/2014 INPUT READ FROM UNIT 1009
 # File generated by Flopy version 3.3.2 on 11/01/2020 at 08:31:33.

 PROCESSING EVT OPTIONS
    EVAPOTRANSPIRATION INPUT WILL BE READ AS ARRAYS.
 END OF EVT OPTIONS

 IC -- INITIAL CONDITIONS PACKAGE, VERSION 8, 3/28/2015 INPUT READ FROM UNIT 1007
 # File generated by Flopy version 3.3.2 on 11/01/2020 at 08:31:33.
 PROCESSING GRIDDATA

     INITIAL HEAD =   4823.000    
 END PROCESSING GRIDDATA
 PROCESSING GRIDDATA

                ICELLTYPE = 1 FOR LAYER 1

                ICELLTYPE = 1 FOR LAYER 2

                ICELLTYPE = 1 FOR LAYER 3

                ICELLTYPE = 1 FOR LAYER 4

                ICELLTYPE = 0 FOR LAYER 5

                ICELLTYPE = 0 FOR LAYER 6

                        K =  0.1000000E-03 FOR LAYER 1

                        K =  0.1000000E-03 FOR LAYER 2

                        K =  0.5000000E-04 FOR LAYER 3

                        K =  0.1000000E-05 FOR LAYER 4

                        K =  0.5000000E-06 FOR LAYER 5

                        K =  0.5000000E-06 FOR LAYER 6

                      K33 =  0.1000000E-03 FOR LAYER 1

                      K33 =  0.1000000E-03 FOR LAYER 2

                      K33 =  0.5000000E-04 FOR LAYER 3

                      K33 =  0.1000000E-05 FOR LAYER 4

                      K33 =  0.5000000E-06 FOR LAYER 5

                      K33 =  0.5000000E-06 FOR LAYER 6
 K22 not provided.  Assuming K22 = K.
 END PROCESSING GRIDDATA
    BINARY GRID INFORMATION WILL BE WRITTEN TO:
      UNIT NUMBER: 1013
      FILE NAME: C:\Users\GIDA2\Documents\voronoiModflow6\model\Model.disv.grb

 OPENED C:\Users\GIDA2\Documents\voronoiModflow6\model\Model.disv.grb
 FILE TYPE:DATA(BINARY)   UNIT 1013   STATUS:REPLACE             
 FORMAT:UNFORMATTED            ACCESS:STREAM              
 ACTION:READWRITE           

      THE LAST TIME STEP WILL BE PRINTED
      THE LAST TIME STEP WILL BE PRINTED
 # File generated by Flopy version 3.3.2 on 11/01/2020 at 08:31:34.

 PROCESSING OC OPTIONS

    BUDGET INFORMATION WILL BE WRITTEN TO:
      UNIT NUMBER: 1014
      FILE NAME: Model.cbc

 OPENED Model.cbc
 FILE TYPE:DATA(BINARY)   UNIT 1014   STATUS:REPLACE             
 FORMAT:UNFORMATTED            ACCESS:STREAM              
 ACTION:READWRITE           

    HEAD INFORMATION WILL BE WRITTEN TO:
      UNIT NUMBER: 1015
      FILE NAME: Model.hds

 OPENED Model.hds
 FILE TYPE:DATA(BINARY)   UNIT 1015   STATUS:REPLACE             
 FORMAT:UNFORMATTED            ACCESS:STREAM              
 ACTION:READWRITE           

 END OF OC OPTIONS

start timestep kper="1" kstp="1" mode="normal"


 BEGIN READING OUTPUT CONTROL FOR STRESS PERIOD 1
      ALL TIME STEPS WILL BE SAVED
      ALL TIME STEPS WILL BE SAVED

 END READING OUTPUT CONTROL FOR STRESS PERIOD 1

                 RECHARGE =  0.4756469E-08

  EVAPOTRANSPIRATION RATE =  0.3805175E-07

         EXTINCTION DEPTH =   1.000000    

 CELL CONVERSIONS FOR ITER.=2  STEP=1  PERIOD=1   (NODE or LRC)
     DRY               (1,3) DRY               (1,4) DRY               (1,5) DRY               (1,7) DRY              (1,13)
     DRY              (1,14) DRY              (1,15) DRY              (1,17) DRY              (1,18) DRY              (1,19)
     DRY              (1,20) DRY              (1,21) DRY              (1,22) DRY              (1,23) DRY              (1,24)
     DRY              (1,25) DRY              (1,26) DRY              (1,27) DRY              (1,28) DRY              (1,29)
     DRY              (1,30) DRY              (1,31) DRY              (1,32) DRY              (1,33) DRY              (1,34)
     DRY              (1,35) DRY              (1,36) DRY              (1,37) DRY              (1,38) DRY              (1,39)
     DRY              (1,54) DRY              (1,55) DRY              (1,56) DRY              (1,58) DRY              (1,59)
     DRY              (1,61) DRY              (1,62) DRY              (1,63) DRY              (1,64) DRY              (1,65)
     DRY              (1,66) DRY              (1,67) DRY              (1,68) DRY              (1,69) DRY              (1,70)
     DRY              (1,71) DRY              (1,72) DRY              (1,73) DRY              (1,74) DRY              (1,75)
     DRY              (1,76) DRY              (1,78) DRY              (1,79) DRY              (1,80) DRY              (1,81)
     DRY              (1,82) DRY              (1,83) DRY              (1,84) DRY              (1,86) DRY              (1,87)
     DRY              (1,88) DRY              (1,89) DRY              (1,90) DRY              (1,91) DRY              (1,92)
     DRY              (1,93) DRY              (1,94) DRY              (1,95) DRY              (1,96) DRY              (1,97)
     DRY              (1,98) DRY              (1,99) DRY             (1,100) DRY             (1,101) DRY             (1,102)
     DRY             (1,103) DRY             (1,104) DRY             (1,105) DRY             (1,106) DRY             (1,107)
     DRY             (1,108) DRY             (1,109) DRY             (1,110) DRY             (1,111) DRY             (1,112)
     DRY             (1,113) DRY             (1,114) DRY             (1,115) DRY             (1,117) DRY             (1,118)
     DRY             (1,119) DRY             (1,120) DRY             (1,126) DRY             (1,127) DRY             (1,128)
     DRY             (1,129) DRY             (1,130) DRY             (1,131) DRY             (1,132) DRY             (1,135)
     DRY             (1,136) DRY             (1,138) DRY             (1,139) DRY             (1,140) DRY             (1,141)
     DRY             (1,142) DRY             (1,143) DRY             (1,144) DRY             (1,145) DRY             (1,146)
     DRY             (1,147) DRY             (1,148) DRY             (1,149) DRY             (1,150) DRY             (1,151)
     DRY             (1,152) DRY             (1,153) DRY             (1,154) DRY             (1,155) DRY             (1,156)
     DRY             (1,157) DRY             (1,158) DRY             (1,159) DRY             (1,160) DRY             (1,161)
     DRY             (1,162) DRY             (1,163) DRY             (1,164) DRY             (1,165) DRY             (1,166)
     DRY             (1,167) DRY             (1,168) DRY             (1,169) DRY             (1,170) DRY             (1,171)
     DRY             (1,172) DRY             (1,173) DRY             (1,174) DRY             (1,175) DRY             (1,176)
     DRY             (1,177) DRY             (1,178) DRY             (1,179) DRY             (1,180) DRY             (1,181)
     DRY             (1,186) DRY             (1,187) DRY             (1,192) DRY             (1,193) DRY             (1,194)
     DRY             (1,195) DRY             (1,199) DRY             (1,200) DRY             (1,201) DRY             (1,202)
     DRY             (1,203) DRY             (1,205) DRY             (1,210) DRY             (1,212) DRY             (1,214)
     DRY             (1,215) DRY             (1,216) DRY             (1,217) DRY             (1,218) DRY             (1,219)
     DRY             (1,220) DRY             (1,221) DRY             (1,222) DRY             (1,223) DRY             (1,224)
     DRY             (1,225) DRY             (1,226) DRY             (1,227) DRY             (1,228) DRY             (1,229)
     DRY             (1,230) DRY             (1,231) DRY             (1,232) DRY             (1,233) DRY             (1,234)
     DRY             (1,235) DRY             (1,236) DRY             (1,237) DRY             (1,238) DRY             (1,239)
     DRY             (1,240) DRY             (1,241) DRY             (1,242) DRY             (1,243) DRY             (1,245)
     DRY             (1,246) DRY             (1,247) DRY             (1,248) DRY             (1,249) DRY             (1,250)
     DRY             (1,251) DRY             (1,252) DRY             (1,253) DRY             (1,254) DRY             (1,255)
     DRY             (1,256) DRY             (1,257) DRY             (1,258) DRY             (1,259) DRY             (1,260)
     DRY             (1,261) DRY             (1,262) DRY             (1,263) DRY             (1,264) DRY             (1,266)
     DRY             (1,267) DRY             (1,268) DRY             (1,269) DRY             (1,270) DRY             (1,271)
     DRY             (1,272) DRY             (1,273) DRY             (1,274) DRY             (1,275) DRY             (1,278)
     DRY             (1,279) DRY             (1,280) DRY             (1,281) DRY             (1,282) DRY             (1,283)
     DRY             (1,284) DRY             (1,285) DRY             (1,286) DRY             (1,287) DRY             (1,288)
     DRY             (1,289) DRY             (1,290) DRY             (1,291) DRY             (1,292) DRY             (1,293)
     DRY             (1,294) DRY             (1,295) DRY             (1,296) DRY             (1,297) DRY             (1,298)
     DRY             (1,299) DRY             (1,300) DRY             (1,301) DRY             (1,302) DRY             (1,303)
     DRY             (1,304) DRY             (1,305) DRY             (1,306) DRY             (1,312) DRY             (1,313)
     DRY             (1,314) DRY             (1,315) DRY             (1,317) DRY             (1,318) DRY             (1,319)
     DRY             (1,320) DRY             (1,321) DRY             (1,322) DRY             (1,323) DRY             (1,324)
     DRY             (1,325) DRY             (1,326) DRY             (1,327) DRY             (1,332) DRY             (1,333)
     DRY             (1,335) DRY             (1,338) DRY             (1,339) DRY             (1,340) DRY             (1,341)
     DRY             (1,342) DRY             (1,343) DRY             (1,344) DRY             (1,345) DRY             (1,346)
     DRY             (1,347) DRY             (1,348) DRY             (1,349) DRY             (1,350) DRY             (1,351)
     DRY             (1,352) DRY             (1,353) DRY             (1,355) DRY             (1,356) DRY             (1,357)
     DRY             (1,358) DRY             (1,360) DRY             (1,362) DRY             (1,363) DRY             (1,364)
     DRY             (1,365) DRY             (1,368) DRY             (1,372) DRY             (1,373) DRY             (1,374)
     DRY             (1,375) DRY             (1,376) DRY             (1,377) DRY             (1,378) DRY             (1,379)
     DRY             (1,380) DRY             (1,381) DRY             (1,382) DRY             (1,383) DRY             (1,384)
     DRY             (1,385) DRY             (1,386) DRY             (1,387) DRY             (1,388) DRY             (1,389)
     DRY             (1,390) DRY             (1,391) DRY             (1,392) DRY             (1,393) DRY             (1,398)
     DRY             (1,399) DRY             (1,400) DRY             (1,403) DRY             (1,404) DRY             (1,405)
     DRY             (1,406) DRY             (1,407) DRY             (1,408) DRY             (1,409) DRY             (1,413)
     DRY             (1,415) DRY             (1,416) DRY             (1,417) DRY             (1,418) DRY             (1,419)
     DRY             (1,420) DRY             (1,421) DRY             (1,422) DRY             (1,423) DRY             (1,424)
     DRY             (1,425) DRY             (1,426) DRY             (1,427) DRY             (1,428) DRY             (1,429)
     DRY             (1,430) DRY             (1,431) DRY             (1,432) DRY             (1,433) DRY             (1,434)
     DRY             (1,435) DRY             (1,436) DRY             (1,437) DRY             (1,439) DRY             (1,441)
     DRY             (1,442) DRY             (1,443) DRY             (1,447) DRY             (1,448) DRY             (1,449)
     DRY             (1,450) DRY             (1,451) DRY             (1,452) DRY             (1,454) DRY             (1,455)
     DRY             (1,456) DRY             (1,457) DRY             (1,458) DRY             (1,459) DRY             (1,460)
     DRY             (1,461) DRY             (1,462) DRY             (1,463) DRY             (1,464) DRY             (1,465)
     DRY             (1,466) DRY             (1,467) DRY             (1,468) DRY             (1,469) DRY             (1,470)
     DRY             (1,471) DRY             (1,472) DRY             (1,473) DRY             (1,474) DRY             (1,475)
     DRY             (1,476) DRY             (1,477) DRY             (1,478) DRY             (1,479) DRY             (1,480)
     DRY             (1,481) DRY             (1,482) DRY             (1,483) DRY             (1,484) DRY             (1,485)
     DRY             (1,486) DRY             (1,488) DRY             (1,489) DRY             (1,490) DRY             (1,491)
     DRY             (1,492) DRY             (1,493) DRY             (1,496) DRY             (1,498) DRY             (1,499)
     DRY             (1,500) DRY             (1,501) DRY             (1,502) DRY             (1,503) DRY             (1,504)
     DRY             (1,505) DRY             (1,506) DRY             (1,507) DRY             (1,508) DRY             (1,509)
     DRY             (1,510) DRY             (1,511) DRY             (1,512) DRY             (1,513) DRY             (1,514)
     DRY             (1,515) DRY             (1,516) DRY             (1,517) DRY             (1,518) DRY             (1,519)
     DRY             (1,520) DRY             (1,521) DRY             (1,522) DRY             (1,523) DRY             (1,524)
     DRY             (1,525) DRY             (1,526) DRY             (1,527) DRY             (1,528) DRY             (1,529)
     DRY             (1,530) DRY             (1,532) DRY             (1,533) DRY             (1,534) DRY             (1,535)
     DRY             (1,536) DRY             (1,537) DRY             (1,538) DRY             (1,539) DRY             (1,541)
     DRY             (1,542) DRY             (1,543) DRY             (1,544) DRY             (1,545) DRY             (1,546)
     DRY             (1,548) DRY             (1,549) DRY             (1,550) DRY             (1,551) DRY             (1,552)
     DRY             (1,553) DRY             (1,554) DRY             (1,555) DRY             (1,556) DRY             (1,557)
     DRY             (1,558) DRY             (1,559) DRY             (1,560) DRY             (1,561) DRY             (1,562)
     DRY             (1,563) DRY             (1,564) DRY             (1,565) DRY             (1,566) DRY             (1,567)
     DRY             (1,568) DRY             (1,569) DRY             (1,570) DRY             (1,571) DRY             (1,572)
     DRY             (1,573) DRY             (1,574) DRY             (1,575) DRY             (1,576) DRY             (1,577)
     DRY             (1,578) DRY             (1,579) DRY             (1,580) DRY             (1,581) DRY             (1,582)
     DRY             (1,583) DRY             (1,584) DRY             (1,585) DRY             (1,586) DRY             (1,587)
     DRY             (1,588) DRY             (1,589) DRY             (1,590) DRY             (1,591) DRY             (1,592)
     DRY             (1,593) DRY             (1,594) DRY             (1,595) DRY             (1,596) DRY             (1,597)
     DRY             (1,598) DRY             (1,599) DRY             (1,600) DRY             (1,601) DRY             (1,602)
     DRY             (1,603) DRY             (1,604) DRY             (1,605) DRY             (1,606) DRY             (1,609)
     DRY             (1,610) DRY             (1,611) DRY             (1,612) DRY             (1,613) DRY             (1,614)
     DRY             (1,615) DRY             (1,616) DRY             (1,617) DRY             (1,618) DRY             (1,619)
     DRY             (1,620) DRY             (1,621) DRY             (1,622) DRY             (1,623) DRY             (1,624)
     DRY             (1,625) DRY             (1,626) DRY             (1,627) DRY             (1,630) DRY             (1,632)
     DRY             (1,633) DRY             (1,634) DRY             (1,635) DRY             (1,636) DRY             (1,637)
     DRY             (1,638) DRY             (1,639) DRY             (1,640) DRY             (1,641) DRY             (1,642)
     DRY             (1,644) DRY             (1,645) DRY             (1,660) DRY             (1,661) DRY             (1,662)
     DRY             (1,663) DRY             (1,664) DRY             (1,665) DRY             (1,666) DRY             (1,669)
     DRY             (1,670) DRY             (1,671) DRY             (1,672) DRY             (1,673) DRY             (1,674)
     DRY             (1,675) DRY             (1,676) DRY             (1,677) DRY             (1,678) DRY             (1,679)
     DRY             (1,680) DRY             (1,681) DRY             (1,682) DRY             (1,683) DRY             (1,684)
     DRY             (1,685) DRY             (1,687) DRY             (1,688) DRY             (1,689) DRY             (1,690)
     DRY             (1,691) DRY             (1,692) DRY             (1,693) DRY             (1,694) DRY             (1,695)
     DRY             (1,696) DRY             (1,697) DRY             (1,698) DRY             (1,699) DRY             (1,700)
     DRY             (1,701) DRY             (1,702) DRY             (1,703) DRY             (1,704) DRY             (1,705)
     DRY             (1,706) DRY             (1,709) DRY             (1,710) DRY             (1,711) DRY             (1,712)
     DRY             (1,713) DRY             (1,714) DRY             (1,715) DRY             (1,716) DRY             (1,717)
     DRY             (1,718) DRY             (1,719) DRY             (1,720) DRY             (1,721) DRY             (1,725)
     DRY             (1,726) DRY             (1,727) DRY             (1,729) DRY             (1,730) DRY             (1,732)
     DRY             (1,735) DRY             (1,736) DRY             (1,737) DRY             (1,738) DRY             (1,739)
     DRY             (1,740) DRY             (1,741) DRY             (1,742) DRY             (1,748) DRY             (1,750)
     DRY             (1,751) DRY             (1,752) DRY             (1,753) DRY             (1,754) DRY             (1,755)
     DRY             (1,757) DRY             (1,758) DRY             (1,759) DRY             (1,760) DRY             (1,761)
     DRY             (1,762) DRY             (1,763) DRY             (1,765) DRY             (1,766) DRY             (1,767)
     DRY             (1,768) DRY             (1,769) DRY             (1,770) DRY             (1,771) DRY             (1,772)
     DRY             (1,773) DRY             (1,774) DRY             (1,775) DRY             (1,776) DRY             (1,777)
     DRY             (1,778) DRY             (1,779) DRY             (1,780) DRY             (1,781) DRY             (1,782)
     DRY             (1,783) DRY             (1,784) DRY             (1,785) DRY             (1,786) DRY             (1,787)
     DRY             (1,788) DRY             (1,789) DRY             (1,790) DRY             (1,791) DRY             (1,792)
     DRY             (1,793) DRY             (1,794) DRY             (1,795) DRY             (1,796) DRY             (1,797)
     DRY             (1,800) DRY             (1,801) DRY             (1,802) DRY             (1,803) DRY             (1,804)
     DRY             (1,806) DRY             (1,807) DRY             (1,808) DRY             (1,809) DRY             (1,810)
     DRY             (1,811) DRY             (1,812) DRY             (1,813) DRY             (1,814) DRY             (1,815)
     DRY             (1,816) DRY             (1,817) DRY             (1,823) DRY             (1,830) DRY             (1,831)
     DRY             (1,832) DRY             (1,833) DRY             (1,834) DRY             (1,835) DRY             (1,836)
     DRY             (1,837) DRY             (1,838) DRY             (1,839) DRY             (1,840) DRY             (1,841)
     DRY             (1,842) DRY             (1,843) DRY             (1,844) DRY             (1,848) DRY             (1,849)
     DRY             (1,850) DRY             (1,851) DRY             (1,852) DRY             (1,853) DRY             (1,854)
     DRY             (1,855) DRY             (1,856) DRY             (1,857) DRY             (1,858) DRY             (1,859)
     DRY             (1,860) DRY             (1,861) DRY             (1,862) DRY             (1,863) DRY             (1,864)
     DRY             (1,865) DRY             (1,869) DRY             (1,874) DRY             (1,875) DRY             (1,876)
     DRY             (1,877) DRY             (1,879) DRY             (1,880) DRY             (1,881) DRY             (1,882)
     DRY             (1,883) DRY             (1,884) DRY             (1,885) DRY             (1,886) DRY             (1,891)
     DRY             (1,892) DRY             (1,893) DRY             (1,894) DRY             (1,897) DRY             (1,898)
     DRY             (1,899) DRY             (1,901) DRY             (1,902) DRY             (1,903) DRY             (1,905)
     DRY             (1,906) DRY             (1,907) DRY             (1,908) DRY             (1,910) DRY             (1,914)
     DRY             (1,918) DRY             (1,919) DRY             (1,921) DRY             (1,922) DRY             (1,923)
     DRY             (1,924) DRY             (1,925) DRY             (1,926) DRY             (1,927) DRY             (1,928)
     DRY             (1,929) DRY             (1,930) DRY             (1,931) DRY             (1,932) DRY             (1,933)
     DRY             (1,934) DRY             (1,935) DRY             (1,936) DRY             (1,937) DRY             (1,938)
     DRY             (1,939) DRY             (1,940) DRY             (1,941) DRY             (1,942) DRY             (1,943)
     DRY             (1,944) DRY             (1,945) DRY             (1,946) DRY             (1,947) DRY             (1,948)
     DRY             (1,949) DRY             (1,950) DRY             (1,952) DRY             (1,953) DRY             (1,954)
     DRY             (1,955) DRY             (1,956) DRY             (1,957) DRY             (1,958) DRY             (1,959)
     DRY             (1,962) DRY             (1,963) DRY             (1,964) DRY             (1,965) DRY             (1,966)
     DRY             (1,967) DRY             (1,968) DRY             (1,969) DRY             (1,970) DRY             (1,971)
     DRY             (1,972) DRY             (1,973) DRY             (1,974) DRY             (1,975) DRY             (1,976)
     DRY             (1,977) DRY             (1,978) DRY             (1,979) DRY             (1,980) DRY             (1,981)
     DRY             (1,982) DRY             (1,983) DRY             (1,984) DRY             (1,985) DRY             (1,986)
     DRY             (1,987) DRY             (1,988) DRY             (1,989) DRY             (1,990) DRY             (1,991)
     DRY             (1,992) DRY             (1,993) DRY             (1,995) DRY             (1,996) DRY             (1,998)
     DRY             (1,999) DRY            (1,1000) DRY            (1,1001) DRY            (1,1002) DRY            (1,1003)
     DRY            (1,1004) DRY            (1,1005) DRY            (1,1006) DRY            (1,1007) DRY            (1,1008)
     DRY            (1,1009) DRY            (1,1010) DRY            (1,1011) DRY            (1,1012) DRY            (1,1013)
     DRY            (1,1014) DRY            (1,1015) DRY            (1,1016) DRY            (1,1017) DRY            (1,1018)
     DRY            (1,1019) DRY            (1,1021) DRY            (1,1022) DRY            (1,1025) DRY            (1,1026)
     DRY            (1,1027) DRY            (1,1028) DRY            (1,1029) DRY            (1,1030) DRY            (1,1031)
     DRY            (1,1032) DRY            (1,1033) DRY            (1,1034) DRY            (1,1037) DRY            (1,1038)
     DRY            (1,1039) DRY            (1,1040) DRY            (1,1041) DRY            (1,1050) DRY            (1,1051)
     DRY            (1,1052) DRY            (1,1053) DRY            (1,1054) DRY            (1,1055) DRY            (1,1056)
     DRY            (1,1057) DRY            (1,1058) DRY            (1,1059) DRY            (1,1061) DRY            (1,1068)
     DRY            (1,1069) DRY            (1,1070) DRY            (1,1071) DRY            (1,1072) DRY            (1,1073)
     DRY            (1,1074) DRY            (1,1075) DRY            (1,1076) DRY            (1,1077) DRY            (1,1078)
     DRY            (1,1079) DRY            (1,1080) DRY            (1,1081) DRY            (1,1082) DRY            (1,1083)
     DRY            (1,1084) DRY            (1,1085) DRY            (1,1086) DRY            (1,1087) DRY            (1,1088)
     DRY            (1,1089) DRY            (1,1090) DRY            (1,1092) DRY            (1,1093) DRY            (1,1095)
     DRY            (1,1096) DRY            (1,1097) DRY            (1,1098) DRY            (1,1099) DRY            (1,1100)
     DRY            (1,1101) DRY            (1,1102) DRY            (1,1103) DRY            (1,1104) DRY            (1,1105)
     DRY            (1,1106) DRY            (1,1107) DRY            (1,1108) DRY            (1,1109) DRY            (1,1110)
     DRY            (1,1111) DRY            (1,1112) DRY            (1,1113) DRY            (1,1114) DRY            (1,1115)
     DRY            (1,1116) DRY            (1,1117) DRY            (1,1118) DRY            (1,1119) DRY            (1,1120)
     DRY            (1,1121) DRY            (1,1122) DRY            (1,1123) DRY            (1,1124) DRY            (1,1125)
     DRY            (1,1126) DRY            (1,1127) DRY            (1,1128) DRY            (1,1129) DRY            (1,1130)
     DRY            (1,1131) DRY            (1,1132) DRY            (1,1133) DRY            (1,1134) DRY            (1,1135)
     DRY            (1,1136) DRY            (1,1137) DRY            (1,1138) DRY            (1,1139) DRY            (1,1140)
     DRY            (1,1141) DRY            (1,1142) DRY            (1,1143) DRY            (1,1144) DRY            (1,1145)
     DRY            (1,1146) DRY            (1,1147) DRY            (1,1148) DRY            (1,1149) DRY            (1,1150)
     DRY            (1,1151) DRY            (1,1152) DRY            (1,1153) DRY            (1,1154) DRY            (1,1155)
     DRY            (1,1156) DRY            (1,1157) DRY            (1,1158) DRY            (1,1159) DRY            (1,1160)
     DRY            (1,1161) DRY            (1,1162) DRY            (1,1164) DRY            (1,1165) DRY            (1,1168)
     DRY            (1,1169) DRY            (1,1170) DRY            (1,1171) DRY            (1,1172) DRY            (1,1173)
     DRY            (1,1174) DRY            (1,1176) DRY            (1,1177) DRY            (1,1178) DRY            (1,1179)
     DRY            (1,1180) DRY            (1,1181) DRY            (1,1182) DRY            (1,1183) DRY            (1,1184)
     DRY            (1,1185) DRY            (1,1186) DRY            (1,1187) DRY            (1,1188) DRY            (1,1190)
     DRY            (1,1191) DRY            (1,1192) DRY            (1,1193) DRY            (1,1194) DRY            (1,1195)
     DRY            (1,1196) DRY            (1,1198) DRY            (1,1204) DRY            (1,1209) DRY            (1,1210)
     DRY            (1,1215) DRY            (1,1217) DRY            (1,1218) DRY            (1,1219) DRY            (1,1220)
     DRY            (1,1221) DRY            (1,1222) DRY            (1,1223) DRY            (1,1224) DRY            (1,1225)
     DRY            (1,1228) DRY            (1,1232) DRY            (1,1233) DRY            (1,1234) DRY            (1,1235)
     DRY            (1,1236) DRY            (1,1237) DRY            (1,1238) DRY            (1,1239) DRY            (1,1240)
     DRY            (1,1241) DRY            (1,1242) DRY            (1,1243) DRY            (1,1244) DRY            (1,1245)
     DRY            (1,1247) DRY            (1,1248) DRY            (1,1249) DRY            (1,1252) DRY            (1,1255)
     DRY            (1,1256) DRY            (1,1257) DRY            (1,1258) DRY            (1,1264) DRY            (1,1267)
     DRY            (1,1268) DRY            (1,1274) DRY            (1,1276) DRY            (1,1277) DRY            (1,1278)
     DRY            (1,1279) DRY            (1,1280) DRY            (1,1281) DRY            (1,1282) DRY            (1,1283)
     DRY            (1,1284) DRY            (1,1285) DRY            (1,1286) DRY            (1,1287) DRY            (1,1288)
     DRY            (1,1289) DRY            (1,1290) DRY            (1,1291) DRY            (1,1292) DRY            (1,1296)
     DRY            (1,1297) DRY            (1,1298) DRY            (1,1299) DRY            (1,1300) DRY            (1,1301)
     DRY            (1,1302) DRY            (1,1303) DRY            (1,1304) DRY            (1,1305) DRY            (1,1306)
     DRY            (1,1307) DRY            (1,1308) DRY            (1,1309) DRY            (1,1310) DRY            (1,1311)
     DRY            (1,1312) DRY            (1,1313) DRY            (1,1314) DRY            (1,1315) DRY            (1,1316)
     DRY            (1,1317) DRY            (1,1318) DRY            (1,1319) DRY            (1,1320) DRY            (1,1321)
     DRY            (1,1322) DRY            (1,1323) DRY            (1,1324) DRY            (1,1325) DRY            (1,1326)
     DRY            (1,1327) DRY            (1,1328) DRY            (1,1329) DRY            (1,1330) DRY            (1,1331)
     DRY            (1,1332) DRY            (1,1333) DRY            (1,1334) DRY            (1,1335) DRY            (1,1336)
     DRY            (1,1337) DRY            (1,1338) DRY            (1,1339) DRY            (1,1340) DRY            (1,1344)
     DRY            (1,1346) DRY            (1,1347) DRY            (1,1349) DRY            (1,1350) DRY            (1,1351)
     DRY            (1,1356) DRY            (1,1357) DRY            (1,1359) DRY            (1,1360) DRY            (1,1361)
     DRY            (1,1362) DRY            (1,1363) DRY            (1,1364) DRY            (1,1365) DRY            (1,1366)
     DRY            (1,1367) DRY            (1,1368) DRY            (1,1369) DRY            (1,1370) DRY            (1,1371)
     DRY            (1,1372) DRY            (1,1373) DRY            (1,1374) DRY            (1,1375) DRY            (1,1376)
     DRY            (1,1377) DRY            (1,1378) DRY            (1,1381) DRY            (1,1382) DRY            (1,1383)
     DRY            (1,1384) DRY            (1,1387) DRY            (1,1397) DRY            (1,1398) DRY            (1,1401)
     DRY            (1,1402) DRY            (1,1403) DRY            (1,1404) DRY            (1,1410) DRY            (1,1411)
     DRY            (1,1412) DRY            (1,1413) DRY            (1,1414) DRY            (1,1417) DRY            (1,1418)
     DRY            (1,1420) DRY            (1,1421) DRY            (1,1422) DRY            (1,1423) DRY            (1,1425)
     DRY            (1,1440) DRY            (1,1441) DRY            (1,1442) DRY            (1,1443) DRY            (1,1451)
     DRY            (1,1455) DRY            (1,1456) DRY            (1,1458) DRY            (1,1459) DRY            (1,1461)
     DRY            (1,1462) DRY            (1,1463) DRY            (1,1464) DRY            (1,1465) DRY            (1,1466)
     DRY            (1,1467) DRY            (1,1468) DRY            (1,1469) DRY            (1,1481) DRY            (1,1482)
     DRY            (1,1483) DRY            (1,1484) DRY            (1,1485) DRY            (1,1486) DRY            (1,1487)
     DRY            (1,1488) DRY            (1,1489) DRY            (1,1490) DRY            (1,1491) DRY            (1,1492)
     DRY            (1,1493) DRY            (1,1494) DRY            (1,1501) DRY            (1,1502) DRY            (1,1503)
     DRY            (1,1504) DRY            (1,1505) DRY            (1,1506) DRY            (1,1507) DRY            (1,1508)
     DRY            (1,1509) DRY            (1,1510) DRY            (1,1511) DRY            (1,1512) DRY            (1,1513)
     DRY            (1,1514) DRY            (1,1515) DRY            (1,1516) DRY            (1,1517) DRY            (1,1518)
     DRY            (1,1519) DRY            (1,1520) DRY            (1,1521) DRY            (1,1523) DRY            (1,1524)
     DRY            (1,1525) DRY            (1,1526) DRY            (1,1527) DRY            (1,1528) DRY            (1,1529)
     DRY            (1,1530) DRY            (1,1531) DRY            (1,1533) DRY            (1,1534) DRY            (1,1535)
     DRY            (1,1536) DRY            (1,1537) DRY            (1,1539) DRY            (1,1540) DRY            (1,1541)
     DRY            (1,1542) DRY            (1,1543) DRY            (1,1544) DRY            (1,1545) DRY            (1,1546)
     DRY            (1,1547) DRY            (1,1551) DRY            (1,1552) DRY            (1,1553) DRY            (1,1554)
     DRY            (1,1555) DRY            (1,1556) DRY            (1,1557) DRY            (1,1558) DRY            (1,1559)
     DRY            (1,1560) DRY            (1,1561) DRY            (1,1562) DRY            (1,1563) DRY            (1,1564)
     DRY            (1,1566) DRY            (1,1574) DRY            (1,1575) DRY            (1,1579) DRY            (1,1580)
     DRY            (1,1581) DRY            (1,1583) DRY            (1,1584) DRY            (1,1585) DRY            (1,1586)
     DRY            (1,1590) DRY            (1,1591) DRY            (1,1592) DRY            (1,1593) DRY            (1,1594)
     DRY            (1,1595) DRY            (1,1596) DRY            (1,1597) DRY            (1,1599) DRY            (1,1600)
     DRY            (1,1601) DRY            (1,1602) DRY            (1,1604) DRY            (1,1605) DRY            (1,1609)
     DRY            (1,1610) DRY            (1,1611) DRY            (1,1612) DRY            (1,1613) DRY            (1,1615)
     DRY            (1,1619) DRY            (1,1620) DRY            (1,1622) DRY            (1,1623) DRY            (1,1624)
     DRY            (1,1625) DRY            (1,1626) DRY            (1,1627) DRY            (1,1628) DRY            (1,1629)
     DRY            (1,1631) DRY            (1,1632) DRY            (1,1634) DRY            (1,1642) DRY            (1,1643)
     DRY            (1,1644) DRY            (1,1645) DRY            (1,1647) DRY            (1,1651) DRY            (1,1660)
     DRY            (1,1661) DRY            (1,1663) DRY            (1,1664) DRY            (1,1665) DRY            (1,1666)
     DRY            (1,1668) DRY            (1,1669) DRY            (1,1671) DRY            (1,1672) DRY            (1,1673)
     DRY            (1,1677) DRY            (1,1678) DRY            (1,1686) DRY            (1,1700) DRY            (1,1705)
     DRY            (1,1706) DRY            (1,1708) DRY            (1,1713) DRY            (1,1714) DRY            (1,1715)
     DRY            (1,1718) DRY            (1,1721) DRY            (1,1722) DRY            (1,1723) DRY            (1,1726)
     DRY            (1,1727) DRY            (1,1729) DRY            (1,1730) DRY            (1,1731) DRY            (1,1732)
     DRY            (1,1733) DRY            (1,1734) DRY            (1,1735) DRY            (1,1736) DRY            (1,1737)
     DRY            (1,1738) DRY            (1,1739) DRY            (1,1740) DRY            (1,1741) DRY            (1,1742)
     DRY            (1,1743) DRY            (1,1744) DRY            (1,1745) DRY            (1,1746) DRY            (1,1747)
     DRY            (1,1748) DRY            (1,1749) DRY            (1,1750) DRY            (1,1751) DRY            (1,1752)
     DRY            (1,1753) DRY            (1,1754) DRY            (1,1755) DRY            (1,1756) DRY            (1,1757)
     DRY            (1,1758) DRY            (1,1759) DRY            (1,1760) DRY            (1,1761) DRY            (1,1763)
     DRY            (1,1776) DRY            (1,1777) DRY            (1,1778) DRY            (1,1779) DRY            (1,1784)
     DRY            (1,1785) DRY            (1,1786) DRY            (1,1787) DRY            (1,1788) DRY            (1,1789)
     DRY            (1,1790) DRY            (1,1791) DRY            (1,1792) DRY            (1,1793) DRY            (1,1794)
     DRY            (1,1795) DRY            (1,1796) DRY            (1,1797) DRY            (1,1798) DRY            (1,1799)
     DRY            (1,1800) DRY            (1,1802) DRY            (1,1806) DRY            (1,1807) DRY            (1,1808)
     DRY            (1,1813) DRY            (1,1816) DRY            (1,1817) DRY            (1,1818) DRY            (1,1819)
     DRY            (1,1820) DRY            (1,1821) DRY            (1,1822) DRY            (1,1823) DRY            (1,1824)
     DRY            (1,1825) DRY            (1,1827) DRY            (1,1831) DRY            (1,1832) DRY            (1,1837)
     DRY            (1,1842) DRY            (1,1843) DRY            (1,1844) DRY            (1,1845) DRY            (1,1846)
     DRY            (1,1847) DRY            (1,1848) DRY            (1,1849) DRY            (1,1850) DRY            (1,1851)
     DRY            (1,1852) DRY            (1,1853) DRY            (1,1854) DRY            (1,1855) DRY            (1,1857)
     DRY            (1,1863) DRY            (1,1864) DRY            (1,1865) DRY            (1,1866) DRY            (1,1870)
     DRY            (1,1871) DRY            (1,1872) DRY            (1,1873) DRY            (1,1874) DRY            (1,1875)
     DRY            (1,1876) DRY            (1,1877) DRY            (1,1878) DRY            (1,1879) DRY            (1,1881)
     DRY            (1,1882) DRY            (1,1883) DRY            (1,1884) DRY            (1,1885) DRY            (1,1886)
     DRY            (1,1887) DRY            (1,1888) DRY            (1,1889) DRY            (1,1890) DRY            (1,1891)
     DRY            (1,1892) DRY            (1,1893) DRY            (1,1894) DRY            (1,1895) DRY            (1,1896)
     DRY            (1,1898) DRY            (1,1899) DRY            (1,1900) DRY            (1,1901) DRY            (1,1902)
     DRY            (1,1903) DRY            (1,1906) DRY            (1,1907) DRY            (1,1908) DRY            (1,1909)
     DRY            (1,1927) DRY            (1,1928) DRY            (1,1929) DRY            (1,1930) DRY            (1,1931)
     DRY            (1,1932) DRY            (1,1933) DRY            (1,1934) DRY            (1,1935) DRY            (1,1936)
     DRY            (1,1937) DRY            (1,1938) DRY            (1,1939) DRY            (1,1940) DRY            (1,1941)
     DRY            (1,1942) DRY            (1,1943) DRY            (1,1944) DRY            (1,1945) DRY            (1,1946)
     DRY            (1,1947) DRY            (1,1948) DRY            (1,1949) DRY            (1,1950) DRY            (1,1951)
     DRY            (1,1952) DRY            (1,1953) DRY            (1,1954) DRY            (1,1957) DRY            (1,1958)
     DRY            (1,1959) DRY            (1,1960) DRY            (1,1989) DRY            (1,1990) DRY            (1,1993)
     DRY            (1,1994) DRY            (1,1996) DRY            (1,1997) DRY            (1,1998) DRY            (1,2001)
     DRY            (1,2002) DRY            (1,2003) DRY            (1,2004) DRY            (1,2005) DRY            (1,2006)
     DRY            (1,2007) DRY            (1,2008) DRY            (1,2009) DRY            (1,2011) DRY            (1,2014)
     DRY            (1,2015) DRY            (1,2016) DRY            (1,2017) DRY            (1,2018) DRY            (1,2019)
     DRY            (1,2020) DRY            (1,2021) DRY            (1,2022) DRY            (1,2023) DRY            (1,2024)
     DRY            (1,2027) DRY            (1,2028) DRY            (1,2032) DRY            (1,2033) DRY            (1,2034)
     DRY            (1,2035) DRY            (1,2036) DRY            (1,2037) DRY            (1,2038) DRY            (1,2039)
     DRY            (1,2040) DRY            (1,2041) DRY            (1,2042) DRY            (1,2043) DRY            (1,2044)
     DRY            (1,2045) DRY            (1,2046) DRY            (1,2047) DRY            (1,2048) DRY            (1,2049)
     DRY            (1,2050) DRY            (1,2051) DRY            (1,2052) DRY            (1,2053) DRY            (1,2054)
     DRY            (1,2055) DRY            (1,2056) DRY            (1,2057) DRY            (1,2058) DRY            (1,2059)
     DRY            (1,2060) DRY            (1,2061) DRY            (1,2062) DRY            (1,2063) DRY            (1,2064)
     DRY            (1,2065) DRY            (1,2066) DRY            (1,2067) DRY            (1,2068) DRY            (1,2069)
     DRY            (1,2070) DRY            (1,2071) DRY            (1,2072) DRY            (1,2073) DRY            (1,2074)
     DRY            (1,2079) DRY            (1,2080) DRY            (1,2081) DRY            (1,2082) DRY            (1,2083)
     DRY            (1,2084) DRY            (1,2085) DRY            (1,2086) DRY            (1,2087) DRY            (1,2088)
     DRY            (1,2089) DRY            (1,2090) DRY            (1,2091) DRY            (1,2092) DRY            (1,2093)
     DRY            (1,2094) DRY            (1,2095) DRY            (1,2096) DRY            (1,2097) DRY            (1,2098)
     DRY            (1,2099) DRY            (1,2100) DRY            (1,2101) DRY            (1,2110) DRY            (1,2111)
     DRY            (1,2112) DRY            (1,2113) DRY            (1,2116) DRY            (1,2118) DRY            (1,2119)
     DRY            (1,2120) DRY            (1,2121) DRY            (1,2122) DRY            (1,2123) DRY            (1,2124)
     DRY            (1,2125) DRY            (1,2126) DRY            (1,2127) DRY            (1,2128) DRY            (1,2129)
     DRY            (1,2130) DRY            (1,2131) DRY            (1,2132) DRY            (1,2133) DRY            (1,2134)
     DRY            (1,2135) DRY            (1,2138) DRY            (1,2139) DRY            (1,2142) DRY            (1,2143)
     DRY            (1,2144) DRY            (1,2145) DRY            (1,2166) DRY            (1,2167) DRY            (1,2177)
     DRY            (1,2179) DRY            (1,2181) DRY            (1,2184) DRY            (1,2188) DRY            (1,2189)
     DRY            (1,2190) DRY            (1,2191) DRY            (1,2192) DRY            (1,2193) DRY            (1,2195)
     DRY            (1,2196) DRY            (1,2197) DRY            (1,2199) DRY            (1,2200) DRY            (1,2201)
     DRY            (1,2202) DRY            (1,2203) DRY            (1,2204) DRY            (1,2205) DRY            (1,2206)
     DRY            (1,2207) DRY            (1,2208) DRY            (1,2210) DRY            (1,2211) DRY            (1,2212)
     DRY            (1,2213) DRY            (1,2217) DRY            (1,2218) DRY            (1,2219) DRY            (1,2220)
     DRY            (1,2225) DRY            (1,2226) DRY            (1,2227) DRY            (1,2228) DRY            (1,2229)
     DRY            (1,2230) DRY            (1,2247) DRY            (1,2248) DRY            (1,2249) DRY            (1,2250)
     DRY            (1,2251) DRY            (1,2252) DRY            (1,2253) DRY            (1,2254) DRY            (1,2257)
     DRY            (1,2267) DRY            (1,2287) DRY            (1,2288) DRY            (1,2289) DRY            (1,2290)
     DRY            (1,2291) DRY            (1,2292) DRY            (1,2293) DRY            (1,2294) DRY            (1,2295)
     DRY            (1,2296) DRY            (1,2297) DRY            (1,2298) DRY            (1,2299) DRY            (1,2300)
     DRY            (1,2301) DRY            (1,2302) DRY            (1,2303) DRY            (1,2304) DRY            (1,2305)
     DRY            (1,2306) DRY            (1,2308) DRY            (1,2309) DRY            (1,2312) DRY            (1,2313)
     DRY            (1,2314) DRY            (1,2315) DRY            (1,2316) DRY            (1,2317) DRY            (1,2318)
     DRY            (1,2319) DRY            (1,2320) DRY            (1,2321) DRY            (1,2322) DRY            (1,2325)
     DRY            (1,2326) DRY            (1,2327) DRY            (1,2328) DRY            (1,2329) DRY            (1,2330)
     DRY            (1,2331) DRY            (1,2332) DRY            (1,2333) DRY            (1,2334) DRY            (1,2335)
     DRY            (1,2336) DRY            (1,2337) DRY            (1,2338) DRY            (1,2339) DRY            (1,2340)
     DRY            (1,2341) DRY            (1,2342) DRY            (1,2343) DRY            (1,2344) DRY            (1,2345)
     DRY            (1,2346) DRY            (1,2347) DRY            (1,2348) DRY            (1,2349) DRY            (1,2350)
     DRY            (1,2351) DRY            (1,2352) DRY            (1,2353) DRY            (1,2354) DRY            (1,2356)
     DRY            (1,2357) DRY            (1,2358) DRY            (1,2359) DRY            (1,2360) DRY            (1,2361)
     DRY            (1,2362) DRY            (1,2363) DRY            (1,2364) DRY            (1,2365) DRY            (1,2366)
     DRY            (1,2367) DRY            (1,2371) DRY            (1,2372) DRY            (1,2374) DRY            (1,2375)
     DRY            (1,2378) DRY            (1,2379) DRY            (1,2380) DRY            (1,2381) DRY            (1,2382)
     DRY            (1,2383) DRY            (1,2384) DRY            (1,2385) DRY            (1,2386) DRY            (1,2409)
     DRY            (1,2411) DRY            (1,2413) DRY            (1,2416) DRY            (1,2417) DRY            (1,2418)
     DRY            (1,2419) DRY            (1,2429) DRY            (1,2430) DRY            (1,2431) DRY            (1,2432)
     DRY            (1,2433) DRY            (1,2434) DRY            (1,2439) DRY            (1,2445) DRY            (1,2448)
     DRY            (1,2456) DRY            (1,2457) DRY            (1,2459) DRY            (1,2460) DRY            (1,2461)
     DRY            (1,2462) DRY            (1,2465) DRY            (1,2469) DRY            (1,2478) DRY            (1,2479)
     DRY            (1,2487) DRY            (1,2488) DRY            (1,2489) DRY            (1,2490) DRY            (1,2491)
     DRY            (1,2492) DRY            (1,2493) DRY            (1,2494) DRY            (1,2497) DRY            (1,2498)
     DRY            (1,2517) DRY            (1,2527) DRY            (1,2529) DRY            (1,2530) DRY            (1,2531)
     DRY            (1,2532) DRY            (1,2533) DRY            (1,2534) DRY            (1,2535) DRY            (1,2536)
     DRY            (1,2537) DRY            (1,2538) DRY            (1,2539) DRY            (1,2540) DRY            (1,2541)
     DRY            (1,2542) DRY            (1,2543) DRY            (1,2544) DRY            (1,2545) DRY            (1,2546)
     DRY            (1,2547) DRY            (1,2548) DRY            (1,2549) DRY            (1,2550) DRY            (1,2551)
     DRY            (1,2554) DRY            (1,2555) DRY            (1,2556) DRY            (1,2557) DRY            (1,2568)
     DRY            (1,2577) DRY            (1,2578) DRY            (1,2579) DRY            (1,2580) DRY            (1,2581)
     DRY            (1,2582) DRY            (1,2585) DRY            (1,2595) DRY            (1,2596) DRY            (1,2600)
     DRY            (1,2605) DRY            (1,2608) DRY            (1,2609) DRY            (1,2611) DRY            (1,2612)
     DRY            (1,2614) DRY            (1,2615) DRY            (1,2616) DRY            (1,2617) DRY            (1,2618)
     DRY            (1,2619) DRY            (1,2620) DRY            (1,2621) DRY            (1,2622) DRY            (1,2623)
     DRY            (1,2625) DRY            (1,2626) DRY            (1,2627) DRY            (1,2636) DRY            (1,2637)
     DRY            (1,2638) DRY            (1,2639) DRY            (1,2640) DRY            (1,2641) DRY            (1,2642)
     DRY            (1,2643) DRY            (1,2644) DRY            (1,2645) DRY            (1,2646) DRY            (1,2647)
     DRY            (1,2648) DRY            (1,2649) DRY            (1,2652) DRY            (1,2653) DRY            (1,2654)
     DRY            (1,2655) DRY            (1,2656) DRY            (1,2657) DRY            (1,2658) DRY            (1,2659)
     DRY            (1,2660) DRY            (1,2661) DRY            (1,2662) DRY            (1,2663) DRY            (1,2664)
     DRY            (1,2665) DRY            (1,2666) DRY            (1,2667) DRY            (1,2668) DRY            (1,2669)
     DRY            (1,2670) DRY            (1,2671) DRY            (1,2672) DRY            (1,2673) DRY            (1,2674)
     DRY            (1,2675) DRY            (1,2676) DRY            (1,2677) DRY            (1,2678) DRY            (1,2679)
     DRY            (1,2680) DRY            (1,2681) DRY            (1,2682) DRY            (1,2684) DRY            (1,2685)
     DRY            (1,2686) DRY            (1,2687) DRY            (1,2688) DRY            (1,2689) DRY            (1,2690)
     DRY            (1,2691) DRY            (1,2692) DRY            (1,2693) DRY            (1,2694) DRY            (1,2695)
     DRY            (1,2696) DRY            (1,2697) DRY            (1,2698) DRY            (1,2699) DRY            (1,2700)
     DRY            (1,2701) DRY            (1,2702) DRY            (1,2703) DRY            (1,2704) DRY            (1,2705)
     DRY            (1,2706) DRY            (1,2707) DRY            (1,2708) DRY            (1,2709) DRY            (1,2710)
     DRY            (1,2711) DRY            (1,2712) DRY            (1,2713) DRY            (1,2714) DRY            (1,2715)
     DRY            (1,2717) DRY            (1,2718) DRY            (1,2719) DRY            (1,2726) DRY            (1,2727)
     DRY            (1,2728) DRY            (1,2729) DRY            (1,2730) DRY            (1,2731) DRY            (1,2733)
     DRY            (1,2734) DRY            (1,2735) DRY            (1,2736) DRY            (1,2738) DRY            (1,2743)
     DRY            (1,2744) DRY            (1,2745) DRY            (1,2746) DRY            (1,2747) DRY            (1,2750)
     DRY            (1,2751) DRY            (1,2752) DRY            (1,2753) DRY            (1,2754) DRY            (1,2760)
     DRY            (1,2766) DRY            (1,2767) DRY            (1,2768) DRY            (1,2769) DRY            (1,2770)
     DRY            (1,2771) DRY            (1,2773) DRY            (1,2774) DRY            (1,2775) DRY            (1,2778)
     DRY            (1,2787) DRY            (1,2796) DRY            (1,2797) DRY            (1,2798) DRY            (1,2799)
     DRY            (1,2800) DRY            (1,2801) DRY            (1,2802) DRY            (1,2803) DRY            (1,2804)
     DRY            (1,2806) DRY            (1,2807) DRY            (1,2808) DRY            (1,2809) DRY            (1,2810)
     DRY            (1,2811) DRY            (1,2814) DRY            (1,2817) DRY            (1,2818) DRY            (1,2819)
     DRY            (1,2822) DRY            (1,2823) DRY            (1,2824) DRY            (1,2825) DRY            (1,2828)
     DRY            (1,2829) DRY            (1,2830) DRY            (1,2831) DRY            (1,2832) DRY            (1,2833)
     DRY            (1,2835) DRY            (1,2836) DRY            (1,2837) DRY            (1,2838) DRY            (1,2839)
     DRY            (1,2840) DRY            (1,2841) DRY            (1,2842) DRY            (1,2846) DRY            (1,2849)
     DRY            (1,2850) DRY            (1,2851) DRY            (1,2852) DRY            (1,2853) DRY            (1,2854)
     DRY            (1,2855) DRY            (1,2856) DRY            (1,2857) DRY            (1,2858) DRY            (1,2859)
     DRY            (1,2860) DRY            (1,2861) DRY            (1,2862) DRY            (1,2863) DRY            (1,2865)
     DRY            (1,2866) DRY            (1,2869) DRY            (1,2877) DRY            (1,2878) DRY            (1,2879)
     DRY            (1,2880) DRY            (1,2881) DRY            (1,2914) DRY            (1,2921) DRY            (1,2922)
     DRY            (1,2924) DRY            (1,2927) DRY            (1,2938) DRY            (1,2939) DRY            (1,2944)
     DRY            (1,2948) DRY            (1,2949) DRY            (1,2957) DRY            (1,2965) DRY            (1,2985)
     DRY            (1,2986) DRY            (1,2988) DRY            (1,2991) DRY            (1,2992) DRY            (1,2994)
     DRY            (1,2996) DRY            (1,3001) DRY            (1,3006) DRY            (1,3007) DRY            (1,3008)
     DRY            (1,3009) DRY            (1,3014) DRY            (1,3016) DRY            (1,3017) DRY            (1,3022)
     DRY            (1,3023) DRY            (1,3028) DRY            (1,3034) DRY            (1,3035) DRY            (1,3036)
     DRY            (1,3037) DRY            (1,3038) DRY            (1,3039) DRY            (1,3040) DRY            (1,3041)
     DRY            (1,3042) DRY            (1,3043) DRY            (1,3044) DRY            (1,3045) DRY            (1,3046)
     DRY            (1,3047) DRY            (1,3048) DRY            (1,3049) DRY            (1,3050) DRY            (1,3051)
     DRY            (1,3052) DRY            (1,3053) DRY            (1,3055) DRY            (1,3056) DRY            (1,3057)
     DRY            (1,3058) DRY            (1,3059) DRY            (1,3060) DRY            (1,3061) DRY            (1,3062)
     DRY            (1,3063) DRY            (1,3064) DRY            (1,3065) DRY            (1,3066) DRY            (1,3067)
     DRY            (1,3068) DRY            (1,3069) DRY            (1,3071) DRY            (1,3072) DRY            (1,3073)
     DRY            (1,3074) DRY            (1,3075) DRY            (1,3076) DRY            (1,3077) DRY            (1,3078)
     DRY            (1,3079) DRY            (1,3089) DRY            (1,3090) DRY            (1,3091) DRY            (1,3102)
     DRY            (1,3103) DRY            (1,3104) DRY            (1,3106) DRY            (1,3108) DRY            (1,3109)
     DRY            (1,3110) DRY            (1,3111) DRY            (1,3112) DRY            (1,3113) DRY            (1,3114)
     DRY            (1,3115) DRY            (1,3119) DRY            (1,3120) DRY            (1,3121) DRY            (1,3122)
     DRY            (1,3123) DRY            (1,3124) DRY            (1,3128) DRY            (1,3130) DRY            (1,3133)
     DRY            (1,3134) DRY            (1,3140) DRY            (1,3141) DRY            (1,3143) DRY            (1,3145)
     DRY            (1,3148) DRY            (1,3149) DRY            (1,3150) DRY            (1,3151) DRY            (1,3152)
     DRY            (1,3153) DRY            (1,3154) DRY            (1,3155) DRY            (1,3156) DRY            (1,3157)
     DRY            (1,3158) DRY            (1,3159) DRY            (1,3160) DRY            (1,3161) DRY            (1,3167)
     DRY            (1,3169) DRY            (1,3181) DRY            (1,3182) DRY            (1,3185) DRY            (1,3186)
     DRY            (1,3187) DRY            (1,3188) DRY            (1,3189) DRY            (1,3190) DRY            (1,3191)
     DRY            (1,3192) DRY            (1,3193) DRY            (1,3197) DRY            (1,3198) DRY            (1,3199)
     DRY            (1,3202) DRY            (1,3203) DRY            (1,3204) DRY            (1,3205) DRY            (1,3206)
     DRY            (1,3207) DRY            (1,3209) DRY            (1,3214) DRY            (1,3216) DRY            (1,3217)
     DRY            (1,3223) DRY            (1,3224) DRY            (1,3227) DRY            (1,3231) DRY            (1,3232)
     DRY            (1,3233) DRY            (1,3234) DRY            (1,3235) DRY            (1,3236) DRY            (1,3239)
     DRY            (1,3240) DRY            (1,3241) DRY            (1,3242) DRY            (1,3243) DRY            (1,3244)
     DRY            (1,3246) DRY            (1,3248) DRY            (1,3250) DRY            (1,3251) DRY            (1,3252)
     DRY            (1,3253) DRY            (1,3254) DRY            (1,3255) DRY            (1,3256) DRY            (1,3257)
     DRY            (1,3258) DRY            (1,3259) DRY            (1,3260) DRY            (1,3261) DRY            (1,3262)
     DRY            (1,3263) DRY            (1,3264) DRY            (1,3265) DRY            (1,3266) DRY            (1,3267)
     DRY            (1,3268) DRY            (1,3269) DRY            (1,3270) DRY            (1,3271) DRY            (1,3272)
     DRY            (1,3273) DRY            (1,3274) DRY            (1,3275) DRY            (1,3276) DRY            (1,3278)
     DRY            (1,3279) DRY            (1,3281) DRY            (1,3282) DRY            (1,3283) DRY            (1,3284)
     DRY            (1,3285) DRY            (1,3286) DRY            (1,3287) DRY            (1,3288) DRY            (1,3289)
     DRY            (1,3290) DRY            (1,3291) DRY            (1,3292) DRY            (1,3293) DRY            (1,3294)
     DRY            (1,3295) DRY            (1,3296) DRY            (1,3297) DRY            (1,3298) DRY            (1,3299)
     DRY            (1,3300) DRY            (1,3301) DRY            (1,3320) DRY            (1,3339) DRY            (1,3351)
     DRY            (1,3356) DRY            (1,3357) DRY            (1,3359) DRY            (1,3360) DRY            (1,3364)
     DRY            (1,3365) DRY            (1,3366) DRY            (1,3367) DRY            (1,3368) DRY            (1,3369)
     DRY            (1,3370) DRY            (1,3371) DRY            (1,3372) DRY            (1,3374) DRY            (1,3375)
     DRY            (1,3376) DRY            (1,3378) DRY            (1,3379) DRY            (1,3380) DRY            (1,3381)
     DRY            (1,3382) DRY            (1,3383) DRY            (1,3384) DRY            (1,3385) DRY            (1,3386)
     DRY            (1,3387) DRY            (1,3388) DRY            (1,3389) DRY            (1,3390) DRY            (1,3391)
     DRY            (1,3392) DRY            (1,3393) DRY            (1,3394) DRY            (1,3395) DRY            (1,3396)
     DRY            (1,3397) DRY            (1,3399) DRY            (1,3400) DRY            (1,3401) DRY            (1,3402)
     DRY            (1,3403) DRY            (1,3406) DRY            (1,3408) DRY            (1,3409) DRY            (1,3410)
     DRY            (1,3418) DRY            (1,3443) DRY            (1,3450) DRY            (1,3451) DRY            (1,3452)
     DRY            (1,3453) DRY            (1,3454) DRY            (1,3455) DRY            (1,3456) DRY            (1,3457)
     DRY            (1,3473) DRY            (1,3474) DRY            (1,3475) DRY            (1,3476) DRY            (1,3477)
     DRY            (1,3478) DRY            (1,3479) DRY            (1,3480) DRY            (1,3491) DRY            (1,3492)
     DRY            (1,3493) DRY            (1,3494) DRY            (1,3495) DRY            (1,3496) DRY            (1,3497)
     DRY            (1,3498) DRY            (1,3499) DRY            (1,3500) DRY            (1,3501) DRY            (1,3502)
     DRY            (1,3503) DRY            (1,3504) DRY            (1,3505) DRY            (1,3506) DRY            (1,3507)
     DRY            (1,3508) DRY            (1,3509) DRY            (1,3510) DRY            (1,3511) DRY            (1,3512)
     DRY            (1,3513) DRY            (1,3514) DRY            (1,3515) DRY            (1,3516) DRY            (1,3517)
     DRY            (1,3518) DRY            (1,3519) DRY            (1,3520) DRY            (1,3521) DRY            (1,3522)
     DRY            (1,3523) DRY            (1,3524) DRY            (1,3525) DRY            (1,3526) DRY            (1,3527)
     DRY            (1,3532) DRY            (1,3533) DRY            (1,3534) DRY            (1,3535) DRY            (1,3536)
     DRY            (1,3537) DRY            (1,3538) DRY            (1,3539) DRY            (1,3540) DRY            (1,3541)
     DRY            (1,3543) DRY            (1,3544) DRY            (1,3546) DRY            (1,3547) DRY            (1,3548)
     DRY            (1,3549) DRY            (1,3550) DRY            (1,3551) DRY            (1,3552) DRY            (1,3553)
     DRY            (1,3554) DRY            (1,3555) DRY            (1,3557) DRY            (1,3558) DRY            (1,3559)
     DRY            (1,3560) DRY            (1,3561) DRY            (1,3562) DRY            (1,3571) DRY            (1,3572)
     DRY            (1,3573) DRY            (1,3574) DRY            (1,3575) DRY            (1,3576) DRY            (1,3577)
     DRY            (1,3578) DRY            (1,3579) DRY            (1,3580) DRY            (1,3581) DRY            (1,3583)
     DRY            (1,3584) DRY            (1,3585) DRY            (1,3586) DRY            (1,3587) DRY            (1,3588)
     DRY            (1,3589) DRY            (1,3590) DRY            (1,3591) DRY            (1,3592) DRY            (1,3601)
     DRY            (1,3602) DRY            (1,3603) DRY            (1,3604) DRY            (1,3605) DRY            (1,3606)
     DRY            (1,3607) DRY            (1,3608) DRY            (1,3609) DRY            (1,3610) DRY            (1,3611)
     DRY            (1,3612) DRY            (1,3613) DRY            (1,3614) DRY            (1,3615) DRY            (1,3616)
     DRY            (1,3617) DRY            (1,3618) DRY            (1,3619) DRY            (1,3620) DRY            (1,3621)
     DRY            (1,3622) DRY            (1,3623) DRY            (1,3624) DRY            (1,3625) DRY            (1,3626)
     DRY            (1,3627) DRY            (1,3628) DRY            (1,3629) DRY            (1,3630) DRY            (1,3631)
     DRY            (1,3632) DRY            (1,3633) DRY            (1,3634) DRY            (1,3653) DRY            (1,3656)
     DRY            (1,3657) DRY            (1,3660) DRY            (1,3661) DRY            (1,3663) DRY            (1,3664)
     DRY            (1,3667) DRY            (1,3671) DRY            (1,3676) DRY            (1,3677) DRY            (1,3684)
     DRY            (1,3685) DRY            (1,3686) DRY            (1,3687) DRY            (1,3688) DRY            (1,3689)
     DRY            (1,3690) DRY            (1,3691) DRY            (1,3692) DRY            (1,3693) DRY            (1,3694)
     DRY            (1,3695) DRY            (1,3698) DRY            (1,3702) DRY            (1,3703) DRY            (1,3711)
     DRY            (1,3712) DRY            (1,3713) DRY            (1,3714) DRY            (1,3715) DRY            (1,3716)
     DRY            (1,3717) DRY            (1,3718) DRY            (1,3733) DRY            (1,3752) DRY            (1,3764)
     DRY            (1,3770) DRY            (1,3784) DRY            (1,3785) DRY            (1,3786) DRY            (1,3787)
     DRY            (1,3788) DRY            (1,3790) DRY            (1,3798) DRY            (1,3799) DRY            (1,3800)
     DRY            (1,3801) DRY            (1,3802) DRY            (1,3806) DRY            (1,3807) DRY            (1,3809)
     DRY            (1,3817) DRY            (1,3818) DRY            (1,3819) DRY            (1,3820) DRY            (1,3821)
     DRY            (1,3823) DRY            (1,3824) DRY            (1,3828) DRY            (1,3830) DRY            (1,3841)
     DRY            (1,3842) DRY            (1,3843) DRY            (1,3853) DRY            (1,3854) DRY            (1,3856)
     DRY            (1,3857) DRY            (1,3858) DRY            (1,3869) DRY            (1,3880) DRY            (1,3893)
     DRY            (1,3894) DRY            (1,3895) DRY            (1,3896) DRY            (1,3897) DRY            (1,3898)
     DRY            (1,3899) DRY            (1,3900) DRY            (1,3901) DRY            (1,3902) DRY            (1,3903)
     DRY            (1,3904) DRY            (1,3905) DRY            (1,3906) DRY            (1,3907) DRY            (1,3908)
     DRY            (1,3909) DRY            (1,3910) DRY            (1,3911) DRY            (1,3912) DRY            (1,3913)
     DRY            (1,3914) DRY            (1,3915) DRY            (1,3916) DRY            (1,3917) DRY            (1,3919)
     DRY            (1,3921) DRY            (1,3923) DRY            (1,3924) DRY            (1,3926) DRY            (1,3937)
     DRY            (1,3938) DRY            (1,3939) DRY            (1,3940) DRY            (1,3941) DRY            (1,3942)
     DRY            (1,3943) DRY            (1,3944) DRY            (1,3945) DRY            (1,3946) DRY            (1,3949)
     DRY            (1,3950) DRY            (1,3954) DRY            (1,3955) DRY            (1,3956) DRY            (1,3957)
     DRY            (1,3958) DRY            (1,3959) DRY            (1,3960) DRY            (1,3961) DRY            (1,3962)
     DRY            (1,3963) DRY            (1,3964) DRY            (1,3965) DRY            (1,3966) DRY            (1,3967)
     DRY            (1,3968) DRY            (1,3969) DRY            (1,3970) DRY            (1,3971) DRY            (1,3972)
     DRY            (1,3973) DRY            (1,3974) DRY            (1,3975) DRY            (1,3976) DRY            (1,3977)
     DRY            (1,3980) DRY            (1,3981) DRY            (1,3982) DRY            (1,3983) DRY            (1,3984)
     DRY            (1,3985) DRY            (1,3986) DRY            (1,3987) DRY            (1,3988) DRY            (1,3989)
     DRY            (1,3990) DRY            (1,3991) DRY            (1,3992) DRY            (1,3993) DRY            (1,3994)
     DRY            (1,3995) DRY            (1,3996) DRY            (1,3997) DRY            (1,3998) DRY            (1,3999)
     DRY            (1,4000) DRY            (1,4001) DRY            (1,4002) DRY            (1,4003) DRY            (1,4004)
     DRY            (1,4005) DRY            (1,4006) DRY            (1,4007) DRY            (1,4013) DRY            (1,4014)
     DRY            (1,4015) DRY            (1,4016) DRY            (1,4017) DRY            (1,4018) DRY            (1,4019)
     DRY            (1,4020) DRY            (1,4021) DRY            (1,4034) DRY            (1,4035) DRY            (1,4046)
     DRY            (1,4047) DRY            (1,4048) DRY            (1,4049) DRY            (1,4050) DRY            (1,4051)
     DRY            (1,4052) DRY            (1,4053) DRY            (1,4054) DRY            (1,4082) DRY            (1,4083)
     DRY            (1,4084) DRY            (1,4086) DRY            (1,4090) DRY            (1,4091) DRY            (1,4092)
     DRY            (1,4121) DRY            (1,4122) DRY            (1,4123) DRY            (1,4124) DRY            (1,4125)
     DRY            (1,4126) DRY            (1,4128) DRY            (1,4129) DRY            (1,4132) DRY            (1,4137)
     DRY            (1,4141) DRY            (1,4147) DRY            (1,4149) DRY            (1,4150) DRY            (1,4158)
     DRY            (1,4166) DRY            (1,4169) DRY            (1,4170) DRY            (1,4177) DRY            (1,4178)
     DRY            (1,4182) DRY            (1,4183) DRY            (1,4184) DRY            (1,4185) DRY            (1,4186)
     DRY            (1,4187) DRY            (1,4188) DRY            (1,4189) DRY            (1,4190) DRY            (1,4191)
     DRY            (1,4192) DRY            (1,4193) DRY            (1,4197) DRY            (1,4203) DRY            (1,4204)
     DRY            (1,4205) DRY            (1,4207) DRY            (1,4211) DRY            (1,4212) DRY            (1,4213)
     DRY            (1,4214) DRY            (1,4230) DRY            (1,4231) DRY            (1,4271) DRY            (1,4272)
     DRY            (1,4273) DRY            (1,4274) DRY            (1,4280) DRY            (1,4282) DRY            (1,4283)
     DRY            (1,4284) DRY            (1,4286) DRY            (1,4292) DRY            (1,4293) DRY            (1,4294)
     DRY            (1,4295) DRY            (1,4296) DRY            (1,4297) DRY            (1,4298) DRY            (1,4299)
     DRY            (1,4300) DRY            (1,4301) DRY            (1,4303) DRY            (1,4304) DRY            (1,4305)
     DRY            (1,4306) DRY            (1,4307) DRY            (1,4308) DRY            (1,4310) DRY            (1,4315)
     DRY            (1,4316) DRY            (1,4317) DRY            (1,4318) DRY            (1,4319) DRY            (1,4320)
     DRY            (1,4321) DRY            (1,4340) DRY            (1,4360) DRY            (1,4361) DRY            (1,4362)
     DRY            (1,4363) DRY            (1,4364) DRY            (1,4365) DRY            (1,4366) DRY            (1,4367)
     DRY            (1,4368) DRY            (1,4369) DRY            (1,4370) DRY            (1,4371) DRY            (1,4372)
     DRY            (1,4373) DRY            (1,4374) DRY            (1,4375) DRY            (1,4376) DRY            (1,4378)
     DRY            (1,4379) DRY            (1,4380) DRY            (1,4381) DRY            (1,4382) DRY            (1,4383)
     DRY            (1,4384) DRY            (1,4385) DRY            (1,4415) DRY            (1,4416) DRY            (1,4417)
     DRY            (1,4418) DRY            (1,4419) DRY            (1,4439) DRY            (1,4447) DRY            (1,4475)
     DRY            (1,4476) DRY            (1,4478) DRY            (1,4480) DRY            (1,4481) DRY            (1,4484)
     DRY            (1,4485) DRY            (1,4486) DRY            (1,4487) DRY            (1,4488) DRY            (1,4489)
     DRY            (1,4494) DRY            (1,4495) DRY            (1,4496) DRY            (1,4497) DRY            (1,4498)
     DRY            (1,4499) DRY            (1,4500) DRY            (1,4501) DRY            (1,4502) DRY            (1,4503)
     DRY            (1,4504) DRY            (1,4505) DRY            (1,4509) DRY            (1,4510) DRY            (1,4511)
     DRY            (1,4512) DRY            (1,4513) DRY            (1,4515) DRY            (1,4516) DRY            (1,4517)
     DRY            (1,4519) DRY            (1,4520) DRY            (1,4525) DRY            (1,4531) DRY            (1,4532)
     DRY            (1,4533) DRY            (1,4534) DRY            (1,4535) DRY            (1,4536) DRY            (1,4537)
     DRY            (1,4538) DRY            (1,4539) DRY            (1,4540) DRY            (1,4541) DRY            (1,4542)
     DRY            (1,4543) DRY            (1,4544) DRY            (1,4545) DRY            (1,4546) DRY            (1,4548)
     DRY            (1,4549) DRY            (1,4551) DRY            (1,4552) DRY            (1,4553) DRY            (1,4554)
     DRY            (1,4556) DRY            (1,4557) DRY            (1,4558) DRY            (1,4559) DRY            (1,4560)
     DRY            (1,4562) DRY            (1,4563) DRY            (1,4564) DRY            (1,4565) DRY            (1,4566)
     DRY            (1,4567) DRY            (1,4568) DRY            (1,4569) DRY            (1,4570) DRY            (1,4571)
     DRY            (1,4572) DRY            (1,4573) DRY            (1,4574) DRY            (1,4575) DRY            (1,4576)
     DRY            (1,4577) DRY            (1,4578) DRY            (1,4579) DRY            (1,4580) DRY            (1,4581)
     DRY            (1,4582) DRY            (1,4583) DRY            (1,4584) DRY            (1,4585) DRY            (1,4586)
     DRY            (1,4587) DRY            (1,4588) DRY            (1,4589) DRY            (1,4590) DRY            (1,4591)
     DRY            (1,4592) DRY            (1,4593) DRY            (1,4594) DRY            (1,4595) DRY            (1,4596)
     DRY            (1,4599) DRY            (1,4600) DRY            (1,4601) DRY            (1,4602) DRY            (1,4603)
     DRY            (1,4604) DRY            (1,4605) DRY            (1,4606) DRY            (1,4607) DRY            (1,4608)
     DRY            (1,4609) DRY            (1,4610) DRY            (1,4611) DRY            (1,4612) DRY            (1,4613)
     DRY            (1,4614) DRY            (1,4615) DRY            (1,4616) DRY            (1,4617) DRY            (1,4618)
     DRY            (1,4620) DRY            (1,4622) DRY            (1,4623) DRY            (1,4624) DRY            (1,4625)
     DRY            (1,4626) DRY            (1,4627) DRY            (1,4628) DRY            (1,4629) DRY            (1,4630)
     DRY            (1,4631) DRY            (1,4632) DRY            (1,4633) DRY            (1,4634) DRY            (1,4635)
     DRY            (1,4636) DRY            (1,4637) DRY            (1,4638) DRY            (1,4639) DRY            (1,4640)
     DRY            (1,4641) DRY            (1,4643) DRY            (1,4644) DRY            (1,4648) DRY            (1,4650)
     DRY            (1,4651) DRY            (1,4652) DRY            (1,4653) DRY            (1,4654) DRY            (1,4655)
     DRY            (1,4656) DRY            (1,4665) DRY            (1,4666) DRY            (1,4667) DRY            (1,4668)
     DRY            (1,4669) DRY            (1,4674) DRY            (1,4675) DRY            (1,4686) DRY            (1,4688)
     DRY            (1,4697) DRY            (1,4699) DRY            (1,4700) DRY            (1,4701) DRY            (1,4702)
     DRY            (1,4703) DRY            (1,4704) DRY            (1,4734) DRY            (1,4735) DRY            (1,4736)
[...]
     DRY           (3,21600) DRY           (3,21601) DRY           (3,21602) DRY           (3,21603) DRY           (3,21604)
     DRY           (3,21605) DRY           (3,21606) DRY           (3,21608) DRY           (3,21609) DRY           (3,21610)
     DRY           (3,21611) DRY           (3,21612) DRY           (3,21614) DRY           (3,21615) DRY           (3,21616)
     DRY           (3,21626) DRY           (3,21627) DRY           (3,21643) DRY           (3,21644) DRY           (3,21649)
     DRY           (3,21652) DRY           (3,21653) DRY           (3,21654) DRY           (3,21660) DRY           (3,21662)
     DRY           (3,21663) DRY           (3,21664) DRY           (3,21665) DRY           (3,21666) DRY           (3,21667)
     DRY           (3,21668) DRY           (3,21669) DRY           (3,21672) DRY           (3,21677) DRY           (3,21678)
     DRY           (3,21679) DRY           (3,21681) DRY           (3,21682) DRY           (3,21683) DRY           (3,21684)
     DRY           (3,21685) DRY           (3,21686) DRY           (3,21687) DRY           (3,21688) DRY           (3,21689)
     DRY           (3,21767) DRY           (3,21768) DRY           (3,21769) DRY           (3,21770) DRY           (3,21890)
     DRY           (3,21891) DRY           (3,21893) DRY           (3,21902) DRY           (3,21903) DRY           (3,21904)
     DRY           (3,21905) DRY           (3,21907) DRY           (3,21969) DRY           (3,21975) DRY           (3,21977)
     DRY           (3,22442) DRY           (3,22553) DRY           (3,22613) DRY           (3,22614) DRY           (3,22618)
     DRY           (3,22619) DRY           (3,22634) DRY           (3,22635) DRY           (3,22636) DRY           (3,22637)
     DRY           (3,22638) DRY           (3,22639) DRY           (3,22640) DRY           (3,22642) DRY           (3,22643)
     DRY           (3,22647) DRY           (3,22648) DRY           (3,22649) DRY           (3,22650) DRY           (3,22651)
     DRY           (3,22653) DRY           (3,22654) DRY           (3,22655) DRY           (3,22656) DRY           (3,22657)
     DRY           (3,22658) DRY           (3,22659) DRY           (3,22661) DRY           (3,22662) DRY           (3,24110)
     DRY           (3,24111) DRY           (3,24113) DRY           (3,24122) DRY           (3,28834) DRY           (3,28838)
     DRY           (3,28840) DRY           (3,28844) DRY           (3,28845) DRY           (3,28847) DRY           (3,28849)
     DRY           (3,28854) DRY           (3,28856) DRY           (3,28866) DRY           (3,28867) DRY           (3,28868)
     DRY           (3,28869) DRY           (3,28870) DRY           (3,28871) DRY           (3,28873) DRY           (3,28875)
     DRY           (3,28876) DRY           (3,28877) DRY           (3,28879) DRY           (3,29050) DRY           (3,29131)
     DRY           (3,29135) DRY           (3,29136) DRY           (3,29139) DRY           (3,29140) DRY           (3,29141)
     DRY           (3,29142) DRY           (3,29194) DRY           (3,29209) DRY           (3,29837) DRY           (3,29838)
     DRY           (3,29839) DRY           (3,29840) DRY           (3,29841) DRY           (3,29842) DRY           (3,29843)
     DRY           (3,29844) DRY           (3,29845) DRY           (3,29846) DRY           (3,29847) DRY           (3,29848)
     DRY           (3,29849) DRY           (3,29850) DRY           (3,29851) DRY           (3,29852) DRY           (3,31406)
     DRY           (3,31427) DRY           (3,31434) DRY           (3,31441) DRY           (3,31442) DRY           (3,31443)
     DRY           (3,35451) DRY           (3,35453) DRY           (3,35454) DRY           (3,35457) DRY           (3,35473)
     DRY           (3,35475) DRY           (3,35476) DRY           (3,35507) DRY           (3,35508) DRY           (3,35509)
     DRY           (3,35510) DRY           (3,35511) DRY           (3,35512) DRY           (3,35513) DRY           (3,35514)
     DRY           (3,35515) DRY           (3,35516) DRY           (3,35519) DRY           (3,35521) DRY           (3,35522)
     DRY           (3,35523) DRY           (3,35526) DRY           (3,35527) DRY           (3,35530) DRY           (3,35622)
     DRY           (3,35623) DRY           (3,35633) DRY           (3,35683) DRY           (3,35684) DRY           (3,35700)
     DRY           (3,35720) DRY           (3,35721) DRY           (3,35722) DRY           (3,35802) DRY           (3,35803)
     DRY           (3,35804) DRY           (3,35805) DRY           (3,35806) DRY           (3,35807) DRY           (3,35808)
     DRY           (3,35809) DRY           (3,35810) DRY           (3,35811) DRY           (3,35812) DRY           (3,35813)
     DRY           (3,35814) DRY           (3,35816) DRY           (3,35854) DRY           (3,35855) DRY           (3,35856)
     DRY           (3,35858) DRY           (3,35859) DRY           (3,35860) DRY           (3,35867) DRY           (3,35871)
     DRY           (3,35872) DRY           (3,35873) DRY           (3,35874) DRY           (3,35875) DRY           (3,35879)
     DRY           (3,35880) DRY           (3,35881) DRY           (3,35966) DRY           (3,35969) DRY           (3,37593)
     DRY           (3,37704) DRY           (3,37720) DRY           (3,40944) DRY           (3,40983) DRY           (3,40984)
     DRY           (3,40985) DRY           (3,40986) DRY           (3,40987) DRY           (3,41000) DRY           (3,41001)
     DRY           (3,41014) DRY           (3,41016) DRY           (3,41018) DRY           (3,41020) DRY           (3,41021)
     DRY           (3,41022) DRY           (3,41027) DRY           (3,41028) DRY           (3,41032) DRY           (3,41033)
     DRY           (3,41034) DRY           (3,41035) DRY           (3,41036) DRY           (3,41037) DRY           (3,41038)
     DRY           (3,41039) DRY           (3,41040) DRY           (3,41041) DRY           (3,41042) DRY           (3,41043)
     DRY           (3,41044) DRY           (3,41131) DRY           (3,41133) DRY           (3,41134) DRY           (3,41135)
     DRY           (3,41136) DRY           (3,41137) DRY           (3,41138) DRY           (3,41139) DRY           (3,41195)
     DRY           (3,41222) DRY           (3,41223) DRY           (3,41240) DRY           (3,41247) DRY           (3,41248)
     DRY           (3,41251) DRY           (3,41252) DRY           (3,41267) DRY           (3,41268) DRY           (3,41269)
     DRY           (3,41272) DRY           (3,41273) DRY           (3,41277) DRY           (3,41364) DRY           (3,41368)
     DRY           (3,41370) DRY           (3,41405) DRY           (3,41407) DRY           (3,41408) DRY           (3,41411)
     DRY           (3,41414) DRY           (3,41425) DRY           (3,41426) DRY           (3,41433) DRY           (3,41434)
     DRY           (3,41435) DRY           (3,41436) DRY           (3,41437) DRY           (3,41438) DRY           (3,41473)
     DRY           (3,41493) DRY           (3,41494) DRY           (3,41495) DRY           (3,42522) DRY           (3,42523)
     DRY           (3,42644) DRY           (3,42648) DRY           (3,44605) DRY           (3,44606) DRY           (3,44607)
     DRY           (3,44609) DRY           (3,44610) DRY           (3,44611) DRY           (3,44612) DRY           (3,44613)
     DRY           (3,44614) DRY           (3,44615) DRY           (3,44616) DRY           (3,44622) DRY           (3,44623)
     DRY           (3,44624) DRY           (3,44625) DRY           (3,44626) DRY           (3,44627) DRY           (3,44628)
     DRY           (3,44732) DRY           (3,44733) DRY           (3,44734) DRY           (3,44738) DRY           (3,44758)
     DRY           (3,44772) DRY           (3,44778) DRY           (3,44781) DRY           (3,44783) DRY           (3,44788)
     DRY           (3,44839) DRY           (3,44840) DRY           (3,44841) DRY           (3,44842) DRY           (3,44843)
     DRY           (3,44844) DRY           (3,44845) DRY           (3,44850) DRY           (3,44852) DRY           (3,44855)
     DRY           (3,44857) DRY           (3,44858) DRY           (3,44859) DRY           (3,44860) DRY           (3,44861)
     DRY           (3,44866) DRY           (3,44867) DRY           (3,44870) DRY           (3,44872) DRY           (3,44874)
     DRY           (3,44877) DRY           (3,44882) DRY           (3,44888) DRY           (3,44890) DRY           (3,44891)
     DRY           (3,44892) DRY           (3,44893) DRY           (3,44894) DRY           (3,44895) DRY           (3,44898)
     DRY           (3,44900) DRY           (3,46695) DRY           (3,46696) DRY           (3,46698) DRY           (3,46700)
     DRY           (3,46701) DRY           (3,46719) DRY           (3,46720) DRY           (3,46721) DRY           (3,46722)
     DRY           (3,46723) DRY           (3,46724) DRY           (3,46726) DRY           (3,46728) DRY           (3,46730)
     DRY           (3,46732) DRY           (3,46741) DRY           (3,46751) DRY           (3,46752) DRY           (3,46819)
     DRY           (3,46826) DRY           (3,46831) DRY           (3,46834) DRY           (3,46835) DRY           (3,46836)
     DRY           (3,46839) DRY           (3,46853) DRY           (3,46859) DRY           (3,46862) DRY           (3,46864)
     DRY           (3,46865) DRY           (3,46866) DRY           (3,46867) DRY           (3,46892) DRY           (3,46939)
     DRY           (3,46941) DRY           (3,46958) DRY           (3,46960) DRY           (3,46962) DRY           (3,46963)
     DRY           (3,46965) DRY           (3,46966) DRY           (3,46969) DRY           (3,46982) DRY           (3,46983)
     DRY           (3,46984) DRY           (3,46985) DRY           (3,46986) DRY           (3,46987) DRY           (3,46994)
     DRY           (3,46995) DRY           (3,46996) DRY           (3,47364) DRY           (3,47895) DRY           (3,47899)
     DRY           (3,47902) DRY           (3,47903) DRY           (3,47905) DRY           (3,47906) DRY           (3,47907)
     DRY           (3,47908) DRY           (3,47912) DRY           (3,47913) DRY           (3,47915) DRY           (3,47917)
     DRY           (3,47920) DRY           (3,47922) DRY           (3,47923) DRY           (3,47928) DRY           (3,47931)
     DRY           (3,47932) DRY           (3,47988) DRY           (3,47991) DRY           (3,48046) DRY           (3,48047)
     DRY           (3,48055) DRY           (3,48062) DRY           (3,48065) DRY           (3,48066) DRY           (3,48069)
     DRY           (3,48070) DRY           (3,48071) DRY           (3,48072) DRY           (3,48637) DRY           (3,48638)
     DRY           (3,48639) DRY           (3,48642) DRY           (3,48643) DRY           (3,48644) DRY           (3,48683)
     DRY           (3,48687) DRY           (3,48696) DRY           (3,48736) DRY           (3,48739) DRY           (3,48740)
     DRY           (3,48741) DRY           (3,48742) DRY           (3,48743) DRY           (3,48744) DRY           (3,48745)
     DRY            (4,1002) DRY            (4,1010) DRY            (4,1886) DRY            (4,1903) DRY            (4,3258)
     DRY            (4,3293) DRY            (4,3296) DRY            (4,5588) DRY            (4,5621) DRY            (4,5642)
     DRY            (4,5648) DRY            (4,5655) DRY            (4,9502) DRY            (4,9593) DRY            (4,9597)
     DRY            (4,9598) DRY           (4,15068) DRY           (4,22487) DRY           (4,36222) DRY           (4,36224)

 CELL CONVERSIONS FOR ITER.=8  STEP=1  PERIOD=1   (NODE or LRC)
     DRY            (1,1923) DRY            (1,1925) DRY            (1,3302) DRY            (1,5696) DRY            (1,6748)
     DRY           (1,11202) DRY           (1,11204) DRY           (1,11213) DRY           (1,11217) DRY           (1,11220)
     DRY           (1,14864) DRY           (1,15287) DRY           (1,15292) DRY           (1,15293) DRY           (1,15299)
     DRY           (1,15410) DRY           (1,15460) DRY           (1,15468) DRY           (1,15477) DRY           (1,15478)
     DRY           (1,15480) DRY           (1,17423) DRY           (1,22074) DRY           (1,22629) DRY           (1,22789)
     DRY           (1,24654) DRY           (1,24671) DRY           (1,29288) DRY           (1,29699) DRY           (1,29724)
     DRY           (1,29727) DRY           (1,29732) DRY           (1,29780) DRY           (1,29786) DRY           (1,29788)
     DRY           (1,29790) DRY           (1,29791) DRY           (1,29796) DRY           (1,29820) DRY           (1,29828)
     DRY           (1,31960) DRY           (1,32075) DRY           (1,35792) DRY           (1,35796) DRY           (1,35799)
     DRY           (1,35800) DRY           (1,35915) DRY           (1,35918) DRY           (1,35931) DRY           (1,35954)
     DRY           (1,36437) DRY           (1,36439) DRY           (1,36463) DRY           (1,38255) DRY           (1,41457)
     DRY           (1,41486) DRY           (1,41504) DRY           (1,41505) DRY           (1,41668) DRY           (1,41768)
     DRY           (1,41770) DRY           (1,41771) DRY           (1,42912) DRY           (1,42914) DRY           (1,42915)
     DRY           (1,44926) DRY           (1,46936) DRY           (1,48043) DRY           (1,48726) DRY           (1,48727)
     DRY           (1,48833) DRY           (1,49142) DRY           (1,49145) DRY           (1,49146) DRY           (1,49148)
     DRY            (2,3319) DRY            (2,3349) DRY            (2,5660) DRY            (2,5691) DRY            (2,5695)
     DRY            (2,9647) DRY            (2,9648) DRY           (2,14852) DRY           (2,14853) DRY           (2,14857)
     DRY           (2,14897) DRY           (2,15426) DRY           (2,22550) DRY           (2,22599) DRY           (2,22608)
     DRY           (2,24561) DRY           (2,29300) DRY           (2,29302) DRY           (2,29310) DRY           (2,29315)
     DRY           (2,29636) DRY           (2,29762) DRY           (2,29763) DRY           (2,29814) DRY           (2,32063)
     DRY           (2,35797) DRY           (2,35910) DRY           (2,35911) DRY           (2,36282) DRY           (2,36398)
     DRY           (2,36405) DRY           (2,36407) DRY           (2,36408) DRY           (2,36409) DRY           (2,36411)
     DRY           (2,36412) DRY           (2,36417) DRY           (2,36440) DRY           (2,38180) DRY           (2,41470)
     DRY           (2,41482) DRY           (2,41489) DRY           (2,41765) DRY           (2,41766) DRY           (2,41780)
     DRY           (2,41782) DRY           (2,41783) DRY           (2,41785) DRY           (2,41786) DRY           (2,41787)
     DRY           (2,44920) DRY           (2,44921) DRY           (2,44922) DRY           (2,44932) DRY           (2,45113)
     DRY           (2,45118) DRY            (3,5669) DRY            (3,5671) DRY            (3,9622) DRY           (3,15256)
     DRY           (3,15260) DRY           (3,15262) DRY           (3,15265) DRY           (3,15269) DRY           (3,21895)
     DRY           (3,22580) DRY           (3,22620) DRY           (3,29322) DRY           (3,29757) DRY           (3,29798)
     DRY           (3,29799) DRY           (3,35967) DRY           (3,35968) DRY           (3,35970) DRY           (3,41365)
     DRY           (3,41366) DRY           (3,41367) DRY           (3,41474) DRY           (3,41480)

 CELL CONVERSIONS FOR ITER.=9  STEP=1  PERIOD=1   (NODE or LRC)
     DRY           (1,24565) DRY           (1,31945)

 CELL CONVERSIONS FOR ITER.=10  STEP=1  PERIOD=1   (NODE or LRC)
     DRY            (1,6736) DRY            (1,6738) DRY            (1,9759) DRY           (1,36549) DRY            (2,3851)
     DRY           (2,15298) DRY           (2,29962)

 CELL CONVERSIONS FOR ITER.=11  STEP=1  PERIOD=1   (NODE or LRC)
     DRY            (1,5740) DRY           (1,11185) DRY           (1,15467) DRY           (2,31941) DRY           (2,32062)
     DRY            (3,1909)

 CELL CONVERSIONS FOR ITER.=21  STEP=1  PERIOD=1   (NODE or LRC)
     DRY            (4,3299)

 CELL CONVERSIONS FOR ITER.=23  STEP=1  PERIOD=1   (NODE or LRC)
     DRY            (1,3847) DRY            (1,6728) DRY            (1,6734) DRY            (1,6735) DRY            (1,6737)
     DRY            (1,6750) DRY            (1,6751) DRY           (1,11216) DRY           (1,32068) DRY            (2,3844)
     DRY           (2,24666) DRY           (2,24670) DRY           (2,32061)

 CELL CONVERSIONS FOR ITER.=24  STEP=1  PERIOD=1   (NODE or LRC)
     DRY           (1,11191) DRY           (2,11199) DRY           (2,17421)
 UBDSV1 SAVING     FLOW-JA-FACE ON UNIT   1014 AT TIME STEP      1, STRESS PERIOD      1
 UBDSV06 SAVING       DATA-SPDIS IN MODEL MODEL            PACKAGE NPF             CONNECTED TO MODEL MODEL            PACKAGE NPF              ON UNIT   1014 AT TIME STEP      1, STRESS PERIOD      1
 UBDSV06 SAVING              DRN IN MODEL MODEL            PACKAGE MODEL           CONNECTED TO MODEL MODEL            PACKAGE DRN_0            ON UNIT   1014 AT TIME STEP      1, STRESS PERIOD      1
 UBDSV06 SAVING              RCH IN MODEL MODEL            PACKAGE MODEL           CONNECTED TO MODEL MODEL            PACKAGE RCHA             ON UNIT   1014 AT TIME STEP      1, STRESS PERIOD      1
 UBDSV06 SAVING              EVT IN MODEL MODEL            PACKAGE MODEL           CONNECTED TO MODEL MODEL            PACKAGE EVTA             ON UNIT   1014 AT TIME STEP      1, STRESS PERIOD      1

 HEAD WILL BE SAVED ON UNIT 1015 AT END OF TIME STEP    1, STRESS PERIOD    1


  VOLUME BUDGET FOR ENTIRE MODEL AT END OF TIME STEP    1, STRESS PERIOD   1
  ---------------------------------------------------------------------------------------------------

     CUMULATIVE VOLUME      L**3       RATES FOR THIS TIME STEP      L**3/T          PACKAGE NAME    
     ------------------                 ------------------------                     ----------------

           IN:                                      IN:
           ---                                      ---
                 DRN =           0.0000                   DRN =           0.0000     DRN_0           
                 RCH =           1.2178                   RCH =           1.2178     RCHA            
                 EVT =           0.0000                   EVT =           0.0000     EVTA            

            TOTAL IN =           1.2178              TOTAL IN =           1.2178

          OUT:                                     OUT:
          ----                                     ----
                 DRN =           1.0784                   DRN =           1.0784     DRN_0           
                 RCH =           0.0000                   RCH =           0.0000     RCHA            
                 EVT =           0.1440                   EVT =           0.1440     EVTA            

           TOTAL OUT =           1.2225             TOTAL OUT =           1.2225

            IN - OUT =      -4.6306E-03              IN - OUT =      -4.6306E-03

 PERCENT DISCREPANCY =          -0.38     PERCENT DISCREPANCY =          -0.38




         TIME SUMMARY AT END OF TIME STEP    1 IN STRESS PERIOD    1
                    SECONDS     MINUTES      HOURS       DAYS        YEARS
                    -----------------------------------------------------------
   TIME STEP LENGTH  1.0000     1.66667E-02 2.77778E-04 1.15741E-05 3.16881E-08
 STRESS PERIOD TIME  1.0000     1.66667E-02 2.77778E-04 1.15741E-05 3.16881E-08
         TOTAL TIME  1.0000     1.66667E-02 2.77778E-04 1.15741E-05 3.16881E-08


end timestep

