                                   MODFLOW 6
                U.S. GEOLOGICAL SURVEY MODULAR HYDROLOGIC MODEL
                          GROUNDWATER FLOW MODEL (GWF)
                            VERSION 6.0.4 03/13/2019

  MODFLOW 6 compiled Sep 20 2019 01:43:25 with GFORTRAN compiler (ver. 7.4.0)

This software has been approved for release by the U.S. Geological 
Survey (USGS). Although the software has been subjected to rigorous 
review, the USGS reserves the right to update the software as needed 
pursuant to further analysis and review. No warranty, expressed or 
implied, is made by the USGS or the U.S. Government as to the 
functionality of the software and related material nor shall the 
fact of release constitute any such warranty. Furthermore, the 
software is released on condition that neither the USGS nor the U.S. 
Government shall be held liable for any damages resulting from its 
authorized or unauthorized use. Also refer to the USGS Water 
Resources Software User Rights Notice for complete use, copyright, 
and distribution information.


MODFLOW was compiled using uniform precision.
Precision of REAL variables: 15


 OPENED Model.disv
 FILE TYPE:DISV6                  UNIT 1005   STATUS:OLD                 
 FORMAT:FORMATTED              ACCESS:SEQUENTIAL          
 ACTION:READ                


 OPENED Model.npf
 FILE TYPE:NPF6                   UNIT 1006   STATUS:OLD                 
 FORMAT:FORMATTED              ACCESS:SEQUENTIAL          
 ACTION:READ                


 OPENED Model.ic
 FILE TYPE:IC6                    UNIT 1007   STATUS:OLD                 
 FORMAT:FORMATTED              ACCESS:SEQUENTIAL          
 ACTION:READ                


 OPENED Model.rcha
 FILE TYPE:RCH6                   UNIT 1008   STATUS:OLD                 
 FORMAT:FORMATTED              ACCESS:SEQUENTIAL          
 ACTION:READ                


 OPENED Model.evta
 FILE TYPE:EVT6                   UNIT 1009   STATUS:OLD                 
 FORMAT:FORMATTED              ACCESS:SEQUENTIAL          
 ACTION:READ                


 OPENED Model.drn
 FILE TYPE:DRN6                   UNIT 1010   STATUS:OLD                 
 FORMAT:FORMATTED              ACCESS:SEQUENTIAL          
 ACTION:READ                


 OPENED Model.oc
 FILE TYPE:OC6                    UNIT 1011   STATUS:OLD                 
 FORMAT:FORMATTED              ACCESS:SEQUENTIAL          
 ACTION:READ                

 NAMEFILE OPTIONS:
    FLOWS WILL BE SAVED TO BUDGET FILE SPECIFIED IN OUTPUT CONTROL

 DISV -- VERTEX GRID DISCRETIZATION PACKAGE, VERSION 1 : 12/23/2015 - INPUT READ FROM UNIT 1005


 # File generated by Flopy version 3.3.2 on 01/02/2021 at 15:39:12.

 PROCESSING DISCRETIZATION OPTIONS
   MODEL LENGTH UNIT IS UNDEFINED
 END OF DISCRETIZATION OPTIONS

 PROCESSING DISCRETIZATION DIMENSIONS
   NLAY = 6
   NCPL = 5907
   NVERT = 11949
 END OF DISCRETIZATION DIMENSIONS

 PROCESSING GRIDDATA
 END PROCESSING GRIDDATA

 PROCESSING VERTICES
   SUCCESSFULLY READ 11949 (X,Y) COORDINATES
   MINIMUM X COORDINATE =     613882.507000000    
   MAXIMUM X COORDINATE =     635562.672000000    
   MINIMUM Y COORDINATE =     8348920.07000000    
   MAXIMUM Y COORDINATE =     8375404.95000000    
 END PROCESSING VERTICES

 PROCESSING CELL2D
   SUCCESSFULLY READ 5907 CELL2D INFORMATION ENTRIES
   MINIMUM X CELL CENTER =     614042.879000000    
   MAXIMUM X CELL CENTER =     635458.166000000    
   MINIMUM Y CELL CENTER =     8349139.78000000    
   MAXIMUM Y CELL CENTER =     8375246.25000000    
   MAXIMUM NUMBER OF CELL2D VERTICES IS 11 FOR CELL 243
 END PROCESSING VERTICES

 NPF -- NODE PROPERTY FLOW PACKAGE, VERSION 1, 3/30/2015 INPUT READ FROM UNIT 1006


 # File generated by Flopy version 3.3.2 on 01/02/2021 at 15:39:14.
 PROCESSING NPF OPTIONS
 END OF NPF OPTIONS

 DRN   -- DRN PACKAGE, VERSION 8, 2/22/2014 INPUT READ FROM UNIT 1010
 # File generated by Flopy version 3.3.2 on 01/02/2021 at 15:39:14.

 PROCESSING DRN OPTIONS
 END OF DRN OPTIONS

 PROCESSING DRN DIMENSIONS
    MAXBOUND =    1270
 END OF DRN DIMENSIONS

 RCH   -- RCH PACKAGE, VERSION 8, 2/22/2014 INPUT READ FROM UNIT 1008
 # File generated by Flopy version 3.3.2 on 01/02/2021 at 15:39:14.

 PROCESSING RCH OPTIONS
    RECHARGE INPUT WILL BE READ AS ARRAY(S).
 END OF RCH OPTIONS

 EVT   -- EVT PACKAGE, VERSION 8, 2/22/2014 INPUT READ FROM UNIT 1009
 # File generated by Flopy version 3.3.2 on 01/02/2021 at 15:39:14.

 PROCESSING EVT OPTIONS
    EVAPOTRANSPIRATION INPUT WILL BE READ AS ARRAYS.
 END OF EVT OPTIONS

 IC -- INITIAL CONDITIONS PACKAGE, VERSION 8, 3/28/2015 INPUT READ FROM UNIT 1007
 # File generated by Flopy version 3.3.2 on 01/02/2021 at 15:39:14.
 PROCESSING GRIDDATA

     INITIAL HEAD =   4837.000    
 END PROCESSING GRIDDATA
 PROCESSING GRIDDATA

                ICELLTYPE = 1 FOR LAYER 1

                ICELLTYPE = 1 FOR LAYER 2

                ICELLTYPE = 1 FOR LAYER 3

                ICELLTYPE = 1 FOR LAYER 4

                ICELLTYPE = 0 FOR LAYER 5

                ICELLTYPE = 0 FOR LAYER 6

                        K =  0.1000000E-03 FOR LAYER 1

                        K =  0.1000000E-03 FOR LAYER 2

                        K =  0.5000000E-04 FOR LAYER 3

                        K =  0.1000000E-05 FOR LAYER 4

                        K =  0.5000000E-06 FOR LAYER 5

                        K =  0.5000000E-06 FOR LAYER 6

                      K33 =  0.1000000E-03 FOR LAYER 1

                      K33 =  0.1000000E-03 FOR LAYER 2

                      K33 =  0.5000000E-04 FOR LAYER 3

                      K33 =  0.1000000E-05 FOR LAYER 4

                      K33 =  0.5000000E-06 FOR LAYER 5

                      K33 =  0.5000000E-06 FOR LAYER 6
 K22 not provided.  Assuming K22 = K.
 END PROCESSING GRIDDATA
    BINARY GRID INFORMATION WILL BE WRITTEN TO:
      UNIT NUMBER: 1013
      FILE NAME: Model.disv.grb

 OPENED Model.disv.grb
 FILE TYPE:DATA(BINARY)   UNIT 1013   STATUS:REPLACE             
 FORMAT:UNFORMATTED            ACCESS:STREAM              
 ACTION:READWRITE           

      THE LAST TIME STEP WILL BE PRINTED
      THE LAST TIME STEP WILL BE PRINTED
 # File generated by Flopy version 3.3.2 on 01/02/2021 at 15:39:14.
 PROCESSING OC OPTIONS
    BUDGET INFORMATION WILL BE WRITTEN TO:
      UNIT NUMBER: 1014
      FILE NAME: Model.cbc

 OPENED Model.cbc
 FILE TYPE:DATA(BINARY)   UNIT 1014   STATUS:REPLACE             
 FORMAT:UNFORMATTED            ACCESS:STREAM              
 ACTION:READWRITE           

    HEAD INFORMATION WILL BE WRITTEN TO:
      UNIT NUMBER: 1015
      FILE NAME: Model.hds

 OPENED Model.hds
 FILE TYPE:DATA(BINARY)   UNIT 1015   STATUS:REPLACE             
 FORMAT:UNFORMATTED            ACCESS:STREAM              
 ACTION:READWRITE           

 END OF OC OPTIONS

 BEGIN READING OUTPUT CONTROL FOR STRESS PERIOD 1
      ALL TIME STEPS WILL BE SAVED
      ALL TIME STEPS WILL BE SAVED

 END READING OUTPUT CONTROL FOR STRESS PERIOD 1

                 RECHARGE =  0.4756469E-08

  EVAPOTRANSPIRATION RATE =  0.3805175E-07

         EXTINCTION DEPTH =   1.000000    

 CELL CONVERSIONS FOR ITER.=2  STEP=1  PERIOD=1   (NODE or LRC)
     DRY               (1,3) DRY               (1,4) DRY               (1,5) DRY               (1,6) DRY               (1,7)
     DRY               (1,8) DRY               (1,9) DRY              (1,10) DRY              (1,11) DRY              (1,12)
     DRY              (1,13) DRY              (1,14) DRY              (1,15) DRY              (1,16) DRY              (1,17)
     DRY              (1,18) DRY              (1,22) DRY              (1,23) DRY              (1,24) DRY              (1,25)
     DRY              (1,26) DRY              (1,27) DRY              (1,28) DRY              (1,29) DRY              (1,30)
     DRY              (1,31) DRY              (1,32) DRY              (1,33) DRY              (1,34) DRY              (1,35)
     DRY              (1,36) DRY              (1,37) DRY              (1,38) DRY              (1,39) DRY              (1,40)
     DRY              (1,41) DRY              (1,42) DRY              (1,43) DRY              (1,44) DRY              (1,45)
     DRY              (1,46) DRY              (1,47) DRY              (1,48) DRY              (1,49) DRY              (1,50)
     DRY              (1,51) DRY              (1,52) DRY              (1,53) DRY              (1,54) DRY              (1,55)
     DRY              (1,56) DRY              (1,57) DRY              (1,58) DRY              (1,59) DRY              (1,60)
     DRY              (1,61) DRY              (1,62) DRY              (1,63) DRY              (1,64) DRY              (1,65)
     DRY              (1,66) DRY              (1,67) DRY              (1,68) DRY              (1,69) DRY              (1,70)
     DRY              (1,71) DRY              (1,72) DRY              (1,73) DRY              (1,74) DRY              (1,75)
     DRY              (1,76) DRY              (1,77) DRY              (1,78) DRY              (1,79) DRY              (1,80)
     DRY              (1,81) DRY              (1,82) DRY              (1,83) DRY              (1,84) DRY              (1,85)
     DRY              (1,86) DRY              (1,87) DRY              (1,88) DRY              (1,89) DRY              (1,90)
     DRY              (1,91) DRY              (1,92) DRY              (1,93) DRY              (1,94) DRY              (1,95)
     DRY              (1,96) DRY              (1,97) DRY              (1,98) DRY              (1,99) DRY             (1,100)
     DRY             (1,101) DRY             (1,102) DRY             (1,103) DRY             (1,104) DRY             (1,105)
     DRY             (1,106) DRY             (1,107) DRY             (1,108) DRY             (1,109) DRY             (1,110)
     DRY             (1,111) DRY             (1,112) DRY             (1,113) DRY             (1,114) DRY             (1,115)
     DRY             (1,116) DRY             (1,117) DRY             (1,118) DRY             (1,119) DRY             (1,120)
     DRY             (1,121) DRY             (1,122) DRY             (1,123) DRY             (1,124) DRY             (1,125)
     DRY             (1,126) DRY             (1,127) DRY             (1,128) DRY             (1,129) DRY             (1,130)
     DRY             (1,131) DRY             (1,132) DRY             (1,133) DRY             (1,134) DRY             (1,135)
     DRY             (1,136) DRY             (1,137) DRY             (1,138) DRY             (1,139) DRY             (1,141)
     DRY             (1,142) DRY             (1,143) DRY             (1,144) DRY             (1,145) DRY             (1,146)
     DRY             (1,147) DRY             (1,148) DRY             (1,149) DRY             (1,150) DRY             (1,151)
     DRY             (1,153) DRY             (1,154) DRY             (1,155) DRY             (1,156) DRY             (1,157)
     DRY             (1,158) DRY             (1,159) DRY             (1,162) DRY             (1,163) DRY             (1,164)
     DRY             (1,165) DRY             (1,166) DRY             (1,167) DRY             (1,168) DRY             (1,169)
     DRY             (1,170) DRY             (1,171) DRY             (1,172) DRY             (1,173) DRY             (1,174)
     DRY             (1,175) DRY             (1,176) DRY             (1,177) DRY             (1,178) DRY             (1,179)
     DRY             (1,180) DRY             (1,181) DRY             (1,182) DRY             (1,183) DRY             (1,184)
     DRY             (1,185) DRY             (1,186) DRY             (1,187) DRY             (1,188) DRY             (1,189)
     DRY             (1,190) DRY             (1,191) DRY             (1,192) DRY             (1,193) DRY             (1,194)
     DRY             (1,195) DRY             (1,196) DRY             (1,197) DRY             (1,198) DRY             (1,199)
     DRY             (1,200) DRY             (1,201) DRY             (1,202) DRY             (1,203) DRY             (1,204)
     DRY             (1,205) DRY             (1,206) DRY             (1,207) DRY             (1,208) DRY             (1,209)
     DRY             (1,210) DRY             (1,211) DRY             (1,212) DRY             (1,213) DRY             (1,214)
     DRY             (1,215) DRY             (1,216) DRY             (1,217) DRY             (1,218) DRY             (1,219)
     DRY             (1,220) DRY             (1,221) DRY             (1,222) DRY             (1,223) DRY             (1,224)
     DRY             (1,225) DRY             (1,226) DRY             (1,227) DRY             (1,228) DRY             (1,229)
     DRY             (1,230) DRY             (1,231) DRY             (1,232) DRY             (1,233) DRY             (1,234)
     DRY             (1,235) DRY             (1,236) DRY             (1,237) DRY             (1,238) DRY             (1,239)
     DRY             (1,240) DRY             (1,241) DRY             (1,242) DRY             (1,243) DRY             (1,244)
     DRY             (1,245) DRY             (1,246) DRY             (1,247) DRY             (1,248) DRY             (1,249)
     DRY             (1,250) DRY             (1,251) DRY             (1,252) DRY             (1,253) DRY             (1,254)
     DRY             (1,255) DRY             (1,256) DRY             (1,257) DRY             (1,258) DRY             (1,259)
     DRY             (1,260) DRY             (1,261) DRY             (1,262) DRY             (1,263) DRY             (1,264)
     DRY             (1,265) DRY             (1,266) DRY             (1,267) DRY             (1,268) DRY             (1,269)
     DRY             (1,270) DRY             (1,271) DRY             (1,272) DRY             (1,273) DRY             (1,279)
     DRY             (1,280) DRY             (1,281) DRY             (1,283) DRY             (1,284) DRY             (1,285)
     DRY             (1,286) DRY             (1,287) DRY             (1,288) DRY             (1,289) DRY             (1,290)
     DRY             (1,291) DRY             (1,292) DRY             (1,293) DRY             (1,298) DRY             (1,299)
     DRY             (1,300) DRY             (1,301) DRY             (1,302) DRY             (1,303) DRY             (1,304)
     DRY             (1,305) DRY             (1,306) DRY             (1,307) DRY             (1,308) DRY             (1,309)
     DRY             (1,310) DRY             (1,311) DRY             (1,316) DRY             (1,317) DRY             (1,318)
     DRY             (1,319) DRY             (1,320) DRY             (1,321) DRY             (1,323) DRY             (1,324)
     DRY             (1,326) DRY             (1,327) DRY             (1,328) DRY             (1,329) DRY             (1,330)
     DRY             (1,331) DRY             (1,332) DRY             (1,333) DRY             (1,334) DRY             (1,335)
     DRY             (1,336) DRY             (1,337) DRY             (1,338) DRY             (1,339) DRY             (1,340)
     DRY             (1,341) DRY             (1,342) DRY             (1,343) DRY             (1,344) DRY             (1,345)
     DRY             (1,346) DRY             (1,347) DRY             (1,348) DRY             (1,349) DRY             (1,350)
     DRY             (1,351) DRY             (1,352) DRY             (1,353) DRY             (1,354) DRY             (1,355)
     DRY             (1,356) DRY             (1,357) DRY             (1,358) DRY             (1,359) DRY             (1,360)
     DRY             (1,361) DRY             (1,362) DRY             (1,363) DRY             (1,364) DRY             (1,365)
     DRY             (1,367) DRY             (1,368) DRY             (1,369) DRY             (1,370) DRY             (1,371)
     DRY             (1,372) DRY             (1,373) DRY             (1,374) DRY             (1,375) DRY             (1,376)
     DRY             (1,377) DRY             (1,378) DRY             (1,379) DRY             (1,380) DRY             (1,381)
     DRY             (1,382) DRY             (1,383) DRY             (1,384) DRY             (1,385) DRY             (1,386)
     DRY             (1,387) DRY             (1,388) DRY             (1,389) DRY             (1,390) DRY             (1,391)
     DRY             (1,392) DRY             (1,393) DRY             (1,394) DRY             (1,395) DRY             (1,396)
     DRY             (1,397) DRY             (1,398) DRY             (1,399) DRY             (1,400) DRY             (1,401)
     DRY             (1,402) DRY             (1,403) DRY             (1,404) DRY             (1,405) DRY             (1,406)
     DRY             (1,407) DRY             (1,408) DRY             (1,409) DRY             (1,410) DRY             (1,411)
     DRY             (1,412) DRY             (1,413) DRY             (1,414) DRY             (1,415) DRY             (1,416)
     DRY             (1,417) DRY             (1,418) DRY             (1,419) DRY             (1,420) DRY             (1,421)
     DRY             (1,422) DRY             (1,423) DRY             (1,424) DRY             (1,425) DRY             (1,426)
     DRY             (1,427) DRY             (1,428) DRY             (1,429) DRY             (1,430) DRY             (1,431)
     DRY             (1,432) DRY             (1,433) DRY             (1,434) DRY             (1,435) DRY             (1,436)
     DRY             (1,437) DRY             (1,438) DRY             (1,439) DRY             (1,440) DRY             (1,441)
     DRY             (1,442) DRY             (1,443) DRY             (1,444) DRY             (1,445) DRY             (1,446)
     DRY             (1,447) DRY             (1,448) DRY             (1,449) DRY             (1,450) DRY             (1,451)
     DRY             (1,452) DRY             (1,453) DRY             (1,454) DRY             (1,455) DRY             (1,456)
     DRY             (1,457) DRY             (1,458) DRY             (1,459) DRY             (1,460) DRY             (1,461)
     DRY             (1,462) DRY             (1,463) DRY             (1,464) DRY             (1,465) DRY             (1,466)
     DRY             (1,467) DRY             (1,468) DRY             (1,469) DRY             (1,470) DRY             (1,471)
     DRY             (1,472) DRY             (1,473) DRY             (1,474) DRY             (1,475) DRY             (1,476)
     DRY             (1,477) DRY             (1,478) DRY             (1,479) DRY             (1,483) DRY             (1,484)
     DRY             (1,485) DRY             (1,486) DRY             (1,487) DRY             (1,489) DRY             (1,491)
     DRY             (1,492) DRY             (1,493) DRY             (1,494) DRY             (1,496) DRY             (1,497)
     DRY             (1,498) DRY             (1,499) DRY             (1,500) DRY             (1,501) DRY             (1,502)
     DRY             (1,503) DRY             (1,504) DRY             (1,505) DRY             (1,506) DRY             (1,507)
     DRY             (1,508) DRY             (1,509) DRY             (1,510) DRY             (1,511) DRY             (1,512)
     DRY             (1,513) DRY             (1,514) DRY             (1,515) DRY             (1,516) DRY             (1,517)
     DRY             (1,518) DRY             (1,519) DRY             (1,520) DRY             (1,521) DRY             (1,522)
     DRY             (1,523) DRY             (1,524) DRY             (1,525) DRY             (1,526) DRY             (1,527)
     DRY             (1,528) DRY             (1,529) DRY             (1,530) DRY             (1,531) DRY             (1,532)
     DRY             (1,533) DRY             (1,534) DRY             (1,535) DRY             (1,536) DRY             (1,537)
     DRY             (1,538) DRY             (1,539) DRY             (1,540) DRY             (1,541) DRY             (1,542)
     DRY             (1,543) DRY             (1,544) DRY             (1,545) DRY             (1,546) DRY             (1,547)
     DRY             (1,548) DRY             (1,549) DRY             (1,550) DRY             (1,551) DRY             (1,552)
     DRY             (1,553) DRY             (1,554) DRY             (1,555) DRY             (1,556) DRY             (1,557)
     DRY             (1,558) DRY             (1,559) DRY             (1,560) DRY             (1,561) DRY             (1,562)
     DRY             (1,563) DRY             (1,564) DRY             (1,565) DRY             (1,566) DRY             (1,567)
     DRY             (1,568) DRY             (1,569) DRY             (1,570) DRY             (1,571) DRY             (1,572)
     DRY             (1,573) DRY             (1,574) DRY             (1,575) DRY             (1,576) DRY             (1,577)
     DRY             (1,578) DRY             (1,579) DRY             (1,580) DRY             (1,584) DRY             (1,594)
     DRY             (1,601) DRY             (1,603) DRY             (1,605) DRY             (1,606) DRY             (1,611)
     DRY             (1,613) DRY             (1,614) DRY             (1,615) DRY             (1,616) DRY             (1,617)
     DRY             (1,618) DRY             (1,619) DRY             (1,620) DRY             (1,621) DRY             (1,622)
     DRY             (1,623) DRY             (1,624) DRY             (1,625) DRY             (1,626) DRY             (1,627)
     DRY             (1,628) DRY             (1,630) DRY             (1,641) DRY             (1,642) DRY             (1,646)
     DRY             (1,647) DRY             (1,648) DRY             (1,649) DRY             (1,650) DRY             (1,651)
     DRY             (1,656) DRY             (1,657) DRY             (1,658) DRY             (1,659) DRY             (1,660)
     DRY             (1,661) DRY             (1,662) DRY             (1,663) DRY             (1,664) DRY             (1,665)
     DRY             (1,667) DRY             (1,668) DRY             (1,669) DRY             (1,671) DRY             (1,672)
     DRY             (1,673) DRY             (1,674) DRY             (1,679) DRY             (1,680) DRY             (1,682)
     DRY             (1,683) DRY             (1,684) DRY             (1,685) DRY             (1,686) DRY             (1,687)
     DRY             (1,688) DRY             (1,690) DRY             (1,691) DRY             (1,696) DRY             (1,700)
     DRY             (1,704) DRY             (1,706) DRY             (1,709) DRY             (1,726) DRY             (1,727)
     DRY             (1,728) DRY             (1,734) DRY             (1,740) DRY             (1,741) DRY             (1,742)
     DRY             (1,743) DRY             (1,744) DRY             (1,751) DRY             (1,754) DRY             (1,755)
     DRY             (1,756) DRY             (1,757) DRY             (1,758) DRY             (1,759) DRY             (1,760)
     DRY             (1,761) DRY             (1,764) DRY             (1,765) DRY             (1,766) DRY             (1,767)
     DRY             (1,771) DRY             (1,773) DRY             (1,774) DRY             (1,775) DRY             (1,776)
     DRY             (1,777) DRY             (1,778) DRY             (1,779) DRY             (1,780) DRY             (1,781)
     DRY             (1,782) DRY             (1,783) DRY             (1,784) DRY             (1,785) DRY             (1,786)
     DRY             (1,787) DRY             (1,788) DRY             (1,789) DRY             (1,790) DRY             (1,791)
     DRY             (1,792) DRY             (1,793) DRY             (1,794) DRY             (1,795) DRY             (1,796)
     DRY             (1,797) DRY             (1,798) DRY             (1,799) DRY             (1,800) DRY             (1,801)
     DRY             (1,802) DRY             (1,803) DRY             (1,804) DRY             (1,805) DRY             (1,806)
     DRY             (1,807) DRY             (1,808) DRY             (1,809) DRY             (1,810) DRY             (1,811)
     DRY             (1,812) DRY             (1,813) DRY             (1,814) DRY             (1,815) DRY             (1,816)
     DRY             (1,817) DRY             (1,818) DRY             (1,819) DRY             (1,820) DRY             (1,821)
     DRY             (1,822) DRY             (1,823) DRY             (1,824) DRY             (1,825) DRY             (1,826)
     DRY             (1,827) DRY             (1,828) DRY             (1,829) DRY             (1,830) DRY             (1,831)
     DRY             (1,832) DRY             (1,833) DRY             (1,834) DRY             (1,835) DRY             (1,836)
     DRY             (1,837) DRY             (1,838) DRY             (1,842) DRY             (1,843) DRY             (1,845)
     DRY             (1,846) DRY             (1,848) DRY             (1,849) DRY             (1,850) DRY             (1,851)
     DRY             (1,852) DRY             (1,853) DRY             (1,854) DRY             (1,855) DRY             (1,856)
     DRY             (1,857) DRY             (1,858) DRY             (1,859) DRY             (1,860) DRY             (1,865)
     DRY             (1,866) DRY             (1,867) DRY             (1,869) DRY             (1,872) DRY             (1,873)
     DRY             (1,874) DRY             (1,875) DRY             (1,876) DRY             (1,877) DRY             (1,878)
     DRY             (1,879) DRY             (1,880) DRY             (1,881) DRY             (1,882) DRY             (1,883)
     DRY             (1,884) DRY             (1,885) DRY             (1,886) DRY             (1,887) DRY             (1,888)
     DRY             (1,889) DRY             (1,890) DRY             (1,891) DRY             (1,892) DRY             (1,893)
     DRY             (1,894) DRY             (1,895) DRY             (1,896) DRY             (1,897) DRY             (1,898)
     DRY             (1,899) DRY             (1,900) DRY             (1,901) DRY             (1,902) DRY             (1,903)
     DRY             (1,904) DRY             (1,905) DRY             (1,906) DRY             (1,907) DRY             (1,908)
     DRY             (1,909) DRY             (1,910) DRY             (1,911) DRY             (1,912) DRY             (1,913)
     DRY             (1,914) DRY             (1,915) DRY             (1,916) DRY             (1,917) DRY             (1,918)
     DRY             (1,919) DRY             (1,920) DRY             (1,921) DRY             (1,922) DRY             (1,923)
     DRY             (1,924) DRY             (1,925) DRY             (1,926) DRY             (1,927) DRY             (1,928)
     DRY             (1,929) DRY             (1,930) DRY             (1,931) DRY             (1,932) DRY             (1,933)
     DRY             (1,934) DRY             (1,935) DRY             (1,936) DRY             (1,937) DRY             (1,938)
     DRY             (1,939) DRY             (1,940) DRY             (1,941) DRY             (1,942) DRY             (1,943)
     DRY             (1,944) DRY             (1,945) DRY             (1,946) DRY             (1,947) DRY             (1,948)
     DRY             (1,949) DRY             (1,950) DRY             (1,951) DRY             (1,952) DRY             (1,953)
     DRY             (1,954) DRY             (1,955) DRY             (1,956) DRY             (1,957) DRY             (1,958)
     DRY             (1,959) DRY             (1,960) DRY             (1,961) DRY             (1,962) DRY             (1,963)
     DRY             (1,964) DRY             (1,965) DRY             (1,966) DRY             (1,967) DRY             (1,968)
     DRY             (1,969) DRY             (1,970) DRY             (1,971) DRY             (1,974) DRY             (1,975)
     DRY             (1,976) DRY             (1,986) DRY             (1,987) DRY             (1,988) DRY             (1,989)
     DRY             (1,992) DRY             (1,993) DRY             (1,994) DRY             (1,995) DRY             (1,996)
     DRY             (1,997) DRY             (1,998) DRY             (1,999) DRY            (1,1000) DRY            (1,1003)
     DRY            (1,1004) DRY            (1,1005) DRY            (1,1006) DRY            (1,1007) DRY            (1,1008)
     DRY            (1,1009) DRY            (1,1010) DRY            (1,1011) DRY            (1,1012) DRY            (1,1013)
     DRY            (1,1014) DRY            (1,1015) DRY            (1,1016) DRY            (1,1017) DRY            (1,1018)
     DRY            (1,1019) DRY            (1,1020) DRY            (1,1021) DRY            (1,1022) DRY            (1,1023)
     DRY            (1,1024) DRY            (1,1025) DRY            (1,1026) DRY            (1,1027) DRY            (1,1028)
     DRY            (1,1029) DRY            (1,1030) DRY            (1,1031) DRY            (1,1032) DRY            (1,1033)
     DRY            (1,1034) DRY            (1,1035) DRY            (1,1036) DRY            (1,1037) DRY            (1,1038)
     DRY            (1,1039) DRY            (1,1040) DRY            (1,1041) DRY            (1,1042) DRY            (1,1043)
     DRY            (1,1044) DRY            (1,1045) DRY            (1,1046) DRY            (1,1047) DRY            (1,1048)
     DRY            (1,1049) DRY            (1,1050) DRY            (1,1051) DRY            (1,1052) DRY            (1,1053)
     DRY            (1,1054) DRY            (1,1055) DRY            (1,1056) DRY            (1,1057) DRY            (1,1058)
     DRY            (1,1059) DRY            (1,1060) DRY            (1,1061) DRY            (1,1062) DRY            (1,1063)
     DRY            (1,1064) DRY            (1,1065) DRY            (1,1066) DRY            (1,1067) DRY            (1,1068)
     DRY            (1,1069) DRY            (1,1070) DRY            (1,1071) DRY            (1,1072) DRY            (1,1073)
     DRY            (1,1074) DRY            (1,1075) DRY            (1,1076) DRY            (1,1077) DRY            (1,1078)
     DRY            (1,1079) DRY            (1,1080) DRY            (1,1081) DRY            (1,1082) DRY            (1,1083)
     DRY            (1,1084) DRY            (1,1085) DRY            (1,1086) DRY            (1,1087) DRY            (1,1088)
     DRY            (1,1089) DRY            (1,1090) DRY            (1,1091) DRY            (1,1092) DRY            (1,1093)
     DRY            (1,1094) DRY            (1,1095) DRY            (1,1096) DRY            (1,1097) DRY            (1,1098)
     DRY            (1,1099) DRY            (1,1100) DRY            (1,1101) DRY            (1,1102) DRY            (1,1103)
     DRY            (1,1104) DRY            (1,1105) DRY            (1,1106) DRY            (1,1107) DRY            (1,1109)
     DRY            (1,1111) DRY            (1,1112) DRY            (1,1113) DRY            (1,1114) DRY            (1,1116)
     DRY            (1,1117) DRY            (1,1118) DRY            (1,1119) DRY            (1,1120) DRY            (1,1121)
     DRY            (1,1122) DRY            (1,1123) DRY            (1,1124) DRY            (1,1125) DRY            (1,1126)
     DRY            (1,1129) DRY            (1,1130) DRY            (1,1133) DRY            (1,1134) DRY            (1,1135)
     DRY            (1,1136) DRY            (1,1137) DRY            (1,1138) DRY            (1,1139) DRY            (1,1140)
     DRY            (1,1141) DRY            (1,1142) DRY            (1,1143) DRY            (1,1144) DRY            (1,1155)
     DRY            (1,1156) DRY            (1,1157) DRY            (1,1162) DRY            (1,1163) DRY            (1,1175)
     DRY            (1,1178) DRY            (1,1179) DRY            (1,1180) DRY            (1,1181) DRY            (1,1182)
     DRY            (1,1183) DRY            (1,1185) DRY            (1,1190) DRY            (1,1194) DRY            (1,1195)
     DRY            (1,1199) DRY            (1,1200) DRY            (1,1201) DRY            (1,1202) DRY            (1,1203)
     DRY            (1,1215) DRY            (1,1217) DRY            (1,1219) DRY            (1,1222) DRY            (1,1224)
     DRY            (1,1226) DRY            (1,1227) DRY            (1,1230) DRY            (1,1231) DRY            (1,1232)
     DRY            (1,1233) DRY            (1,1234) DRY            (1,1235) DRY            (1,1239) DRY            (1,1240)
     DRY            (1,1241) DRY            (1,1242) DRY            (1,1243) DRY            (1,1244) DRY            (1,1245)
     DRY            (1,1246) DRY            (1,1247) DRY            (1,1248) DRY            (1,1249) DRY            (1,1250)
     DRY            (1,1251) DRY            (1,1252) DRY            (1,1253) DRY            (1,1254) DRY            (1,1255)
     DRY            (1,1256) DRY            (1,1268) DRY            (1,1275) DRY            (1,1276) DRY            (1,1277)
     DRY            (1,1278) DRY            (1,1279) DRY            (1,1280) DRY            (1,1281) DRY            (1,1282)
     DRY            (1,1283) DRY            (1,1284) DRY            (1,1285) DRY            (1,1286) DRY            (1,1287)
     DRY            (1,1288) DRY            (1,1289) DRY            (1,1290) DRY            (1,1291) DRY            (1,1292)
     DRY            (1,1298) DRY            (1,1299) DRY            (1,1300) DRY            (1,1301) DRY            (1,1302)
     DRY            (1,1303) DRY            (1,1304) DRY            (1,1305) DRY            (1,1306) DRY            (1,1307)
     DRY            (1,1308) DRY            (1,1309) DRY            (1,1310) DRY            (1,1311) DRY            (1,1312)
     DRY            (1,1313) DRY            (1,1314) DRY            (1,1315) DRY            (1,1316) DRY            (1,1317)
     DRY            (1,1318) DRY            (1,1319) DRY            (1,1320) DRY            (1,1321) DRY            (1,1322)
     DRY            (1,1323) DRY            (1,1324) DRY            (1,1325) DRY            (1,1326) DRY            (1,1327)
     DRY            (1,1328) DRY            (1,1329) DRY            (1,1330) DRY            (1,1331) DRY            (1,1332)
     DRY            (1,1333) DRY            (1,1334) DRY            (1,1335) DRY            (1,1336) DRY            (1,1337)
     DRY            (1,1338) DRY            (1,1339) DRY            (1,1340) DRY            (1,1341) DRY            (1,1342)
     DRY            (1,1343) DRY            (1,1344) DRY            (1,1345) DRY            (1,1346) DRY            (1,1347)
     DRY            (1,1348) DRY            (1,1349) DRY            (1,1352) DRY            (1,1354) DRY            (1,1355)
     DRY            (1,1356) DRY            (1,1357) DRY            (1,1358) DRY            (1,1359) DRY            (1,1360)
     DRY            (1,1361) DRY            (1,1362) DRY            (1,1363) DRY            (1,1364) DRY            (1,1365)
     DRY            (1,1366) DRY            (1,1367) DRY            (1,1368) DRY            (1,1369) DRY            (1,1370)
     DRY            (1,1375) DRY            (1,1378) DRY            (1,1381) DRY            (1,1382) DRY            (1,1383)
     DRY            (1,1384) DRY            (1,1385) DRY            (1,1386) DRY            (1,1387) DRY            (1,1388)
     DRY            (1,1389) DRY            (1,1390) DRY            (1,1391) DRY            (1,1392) DRY            (1,1393)
     DRY            (1,1394) DRY            (1,1395) DRY            (1,1396) DRY            (1,1397) DRY            (1,1398)
     DRY            (1,1399) DRY            (1,1400) DRY            (1,1401) DRY            (1,1402) DRY            (1,1403)
     DRY            (1,1404) DRY            (1,1405) DRY            (1,1406) DRY            (1,1408) DRY            (1,1409)
     DRY            (1,1410) DRY            (1,1411) DRY            (1,1412) DRY            (1,1413) DRY            (1,1414)
     DRY            (1,1415) DRY            (1,1416) DRY            (1,1419) DRY            (1,1422) DRY            (1,1429)
     DRY            (1,1430) DRY            (1,1433) DRY            (1,1438) DRY            (1,1439) DRY            (1,1440)
     DRY            (1,1441) DRY            (1,1442) DRY            (1,1443) DRY            (1,1444) DRY            (1,1445)
     DRY            (1,1446) DRY            (1,1447) DRY            (1,1448) DRY            (1,1451) DRY            (1,1455)
     DRY            (1,1457) DRY            (1,1458) DRY            (1,1459) DRY            (1,1463) DRY            (1,1465)
     DRY            (1,1466) DRY            (1,1473) DRY            (1,1477) DRY            (1,1478) DRY            (1,1479)
     DRY            (1,1481) DRY            (1,1491) DRY            (1,1494) DRY            (1,1496) DRY            (1,1501)
     DRY            (1,1502) DRY            (1,1503) DRY            (1,1504) DRY            (1,1505) DRY            (1,1506)
     DRY            (1,1507) DRY            (1,1508) DRY            (1,1509) DRY            (1,1510) DRY            (1,1511)
     DRY            (1,1512) DRY            (1,1513) DRY            (1,1517) DRY            (1,1523) DRY            (1,1524)
     DRY            (1,1525) DRY            (1,1526) DRY            (1,1527) DRY            (1,1528) DRY            (1,1529)
     DRY            (1,1530) DRY            (1,1531) DRY            (1,1532) DRY            (1,1533) DRY            (1,1534)
     DRY            (1,1535) DRY            (1,1536) DRY            (1,1537) DRY            (1,1538) DRY            (1,1539)
     DRY            (1,1540) DRY            (1,1541) DRY            (1,1543) DRY            (1,1544) DRY            (1,1545)
     DRY            (1,1546) DRY            (1,1547) DRY            (1,1548) DRY            (1,1549) DRY            (1,1550)
     DRY            (1,1551) DRY            (1,1552) DRY            (1,1553) DRY            (1,1554) DRY            (1,1555)
     DRY            (1,1556) DRY            (1,1557) DRY            (1,1558) DRY            (1,1559) DRY            (1,1560)
     DRY            (1,1561) DRY            (1,1562) DRY            (1,1563) DRY            (1,1564) DRY            (1,1565)
     DRY            (1,1566) DRY            (1,1567) DRY            (1,1568) DRY            (1,1569) DRY            (1,1570)
     DRY            (1,1571) DRY            (1,1572) DRY            (1,1573) DRY            (1,1574) DRY            (1,1575)
     DRY            (1,1576) DRY            (1,1577) DRY            (1,1578) DRY            (1,1579) DRY            (1,1580)
     DRY            (1,1581) DRY            (1,1582) DRY            (1,1583) DRY            (1,1584) DRY            (1,1585)
     DRY            (1,1586) DRY            (1,1587) DRY            (1,1588) DRY            (1,1589) DRY            (1,1590)
     DRY            (1,1591) DRY            (1,1592) DRY            (1,1593) DRY            (1,1594) DRY            (1,1595)
     DRY            (1,1596) DRY            (1,1597) DRY            (1,1598) DRY            (1,1599) DRY            (1,1600)
     DRY            (1,1601) DRY            (1,1602) DRY            (1,1603) DRY            (1,1604) DRY            (1,1605)
     DRY            (1,1606) DRY            (1,1607) DRY            (1,1608) DRY            (1,1609) DRY            (1,1610)
     DRY            (1,1611) DRY            (1,1612) DRY            (1,1613) DRY            (1,1614) DRY            (1,1615)
     DRY            (1,1616) DRY            (1,1617) DRY            (1,1618) DRY            (1,1619) DRY            (1,1620)
     DRY            (1,1621) DRY            (1,1622) DRY            (1,1623) DRY            (1,1624) DRY            (1,1625)
     DRY            (1,1626) DRY            (1,1627) DRY            (1,1628) DRY            (1,1629) DRY            (1,1630)
     DRY            (1,1631) DRY            (1,1632) DRY            (1,1633) DRY            (1,1634) DRY            (1,1635)
     DRY            (1,1636) DRY            (1,1637) DRY            (1,1638) DRY            (1,1639) DRY            (1,1640)
     DRY            (1,1641) DRY            (1,1642) DRY            (1,1643) DRY            (1,1644) DRY            (1,1645)
     DRY            (1,1646) DRY            (1,1648) DRY            (1,1649) DRY            (1,1650) DRY            (1,1655)
     DRY            (1,1656) DRY            (1,1657) DRY            (1,1658) DRY            (1,1659) DRY            (1,1660)
     DRY            (1,1661) DRY            (1,1662) DRY            (1,1663) DRY            (1,1664) DRY            (1,1665)
     DRY            (1,1666) DRY            (1,1667) DRY            (1,1668) DRY            (1,1669) DRY            (1,1670)
     DRY            (1,1671) DRY            (1,1672) DRY            (1,1673) DRY            (1,1674) DRY            (1,1675)
     DRY            (1,1676) DRY            (1,1677) DRY            (1,1678) DRY            (1,1679) DRY            (1,1680)
     DRY            (1,1681) DRY            (1,1682) DRY            (1,1683) DRY            (1,1684) DRY            (1,1685)
     DRY            (1,1686) DRY            (1,1687) DRY            (1,1688) DRY            (1,1689) DRY            (1,1691)
     DRY            (1,1692) DRY            (1,1693) DRY            (1,1694) DRY            (1,1695) DRY            (1,1696)
     DRY            (1,1697) DRY            (1,1698) DRY            (1,1699) DRY            (1,1700) DRY            (1,1701)
     DRY            (1,1702) DRY            (1,1703) DRY            (1,1704) DRY            (1,1705) DRY            (1,1706)
     DRY            (1,1707) DRY            (1,1708) DRY            (1,1709) DRY            (1,1710) DRY            (1,1711)
     DRY            (1,1718) DRY            (1,1719) DRY            (1,1736) DRY            (1,1739) DRY            (1,1740)
     DRY            (1,1748) DRY            (1,1749) DRY            (1,1750) DRY            (1,1751) DRY            (1,1752)
     DRY            (1,1753) DRY            (1,1754) DRY            (1,1756) DRY            (1,1759) DRY            (1,1760)
     DRY            (1,1761) DRY            (1,1762) DRY            (1,1763) DRY            (1,1764) DRY            (1,1765)
     DRY            (1,1766) DRY            (1,1767) DRY            (1,1768) DRY            (1,1775) DRY            (1,1776)
     DRY            (1,1777) DRY            (1,1778) DRY            (1,1779) DRY            (1,1780) DRY            (1,1781)
     DRY            (1,1782) DRY            (1,1783) DRY            (1,1784) DRY            (1,1785) DRY            (1,1786)
     DRY            (1,1787) DRY            (1,1788) DRY            (1,1789) DRY            (1,1790) DRY            (1,1791)
     DRY            (1,1792) DRY            (1,1793) DRY            (1,1794) DRY            (1,1795) DRY            (1,1796)
     DRY            (1,1797) DRY            (1,1798) DRY            (1,1799) DRY            (1,1800) DRY            (1,1801)
     DRY            (1,1802) DRY            (1,1803) DRY            (1,1804) DRY            (1,1805) DRY            (1,1806)
     DRY            (1,1807) DRY            (1,1808) DRY            (1,1809) DRY            (1,1810) DRY            (1,1811)
     DRY            (1,1812) DRY            (1,1813) DRY            (1,1814) DRY            (1,1815) DRY            (1,1816)
     DRY            (1,1817) DRY            (1,1818) DRY            (1,1819) DRY            (1,1820) DRY            (1,1821)
     DRY            (1,1822) DRY            (1,1823) DRY            (1,1824) DRY            (1,1825) DRY            (1,1826)
     DRY            (1,1827) DRY            (1,1828) DRY            (1,1829) DRY            (1,1830) DRY            (1,1831)
     DRY            (1,1832) DRY            (1,1833) DRY            (1,1834) DRY            (1,1835) DRY            (1,1836)
     DRY            (1,1837) DRY            (1,1838) DRY            (1,1839) DRY            (1,1840) DRY            (1,1841)
     DRY            (1,1842) DRY            (1,1843) DRY            (1,1844) DRY            (1,1845) DRY            (1,1846)
     DRY            (1,1847) DRY            (1,1848) DRY            (1,1849) DRY            (1,1850) DRY            (1,1851)
     DRY            (1,1852) DRY            (1,1853) DRY            (1,1854) DRY            (1,1855) DRY            (1,1856)
     DRY            (1,1857) DRY            (1,1858) DRY            (1,1859) DRY            (1,1860) DRY            (1,1861)
     DRY            (1,1862) DRY            (1,1863) DRY            (1,1864) DRY            (1,1865) DRY            (1,1866)
     DRY            (1,1867) DRY            (1,1868) DRY            (1,1869) DRY            (1,1870) DRY            (1,1871)
     DRY            (1,1872) DRY            (1,1873) DRY            (1,1874) DRY            (1,1875) DRY            (1,1876)
     DRY            (1,1877) DRY            (1,1878) DRY            (1,1881) DRY            (1,1882) DRY            (1,1883)
     DRY            (1,1884) DRY            (1,1887) DRY            (1,1889) DRY            (1,1892) DRY            (1,1899)
     DRY            (1,1901) DRY            (1,1902) DRY            (1,1906) DRY            (1,1907) DRY            (1,1908)
     DRY            (1,1914) DRY            (1,1915) DRY            (1,1916) DRY            (1,1917) DRY            (1,1918)
     DRY            (1,1919) DRY            (1,1924) DRY            (1,1926) DRY            (1,1927) DRY            (1,1928)
     DRY            (1,1929) DRY            (1,1930) DRY            (1,1931) DRY            (1,1932) DRY            (1,1933)
     DRY            (1,1934) DRY            (1,1935) DRY            (1,1936) DRY            (1,1937) DRY            (1,1938)
     DRY            (1,1939) DRY            (1,1940) DRY            (1,1941) DRY            (1,1942) DRY            (1,1943)
     DRY            (1,1944) DRY            (1,1945) DRY            (1,1946) DRY            (1,1947) DRY            (1,1948)
     DRY            (1,1949) DRY            (1,1950) DRY            (1,1951) DRY            (1,1952) DRY            (1,1953)
     DRY            (1,1954) DRY            (1,1955) DRY            (1,1956) DRY            (1,1957) DRY            (1,1958)
     DRY            (1,1959) DRY            (1,1960) DRY            (1,1961) DRY            (1,1967) DRY            (1,1968)
     DRY            (1,1969) DRY            (1,1970) DRY            (1,1972) DRY            (1,1973) DRY            (1,1974)
     DRY            (1,1975) DRY            (1,1976) DRY            (1,1977) DRY            (1,1978) DRY            (1,1979)
     DRY            (1,1980) DRY            (1,1981) DRY            (1,1982) DRY            (1,1983) DRY            (1,1984)
     DRY            (1,1985) DRY            (1,1986) DRY            (1,1987) DRY            (1,1988) DRY            (1,1989)
     DRY            (1,1990) DRY            (1,1991) DRY            (1,1992) DRY            (1,1993) DRY            (1,1994)
     DRY            (1,1995) DRY            (1,1996) DRY            (1,1997) DRY            (1,1998) DRY            (1,1999)
     DRY            (1,2000) DRY            (1,2001) DRY            (1,2002) DRY            (1,2003) DRY            (1,2004)
     DRY            (1,2005) DRY            (1,2006) DRY            (1,2007) DRY            (1,2008) DRY            (1,2009)
     DRY            (1,2010) DRY            (1,2011) DRY            (1,2012) DRY            (1,2013) DRY            (1,2014)
     DRY            (1,2015) DRY            (1,2016) DRY            (1,2017) DRY            (1,2018) DRY            (1,2019)
     DRY            (1,2020) DRY            (1,2021) DRY            (1,2022) DRY            (1,2023) DRY            (1,2024)
     DRY            (1,2025) DRY            (1,2026) DRY            (1,2027) DRY            (1,2028) DRY            (1,2029)
     DRY            (1,2030) DRY            (1,2031) DRY            (1,2032) DRY            (1,2033) DRY            (1,2034)
     DRY            (1,2035) DRY            (1,2036) DRY            (1,2037) DRY            (1,2038) DRY            (1,2039)
     DRY            (1,2040) DRY            (1,2041) DRY            (1,2042) DRY            (1,2043) DRY            (1,2044)
     DRY            (1,2045) DRY            (1,2046) DRY            (1,2047) DRY            (1,2048) DRY            (1,2049)
     DRY            (1,2050) DRY            (1,2051) DRY            (1,2052) DRY            (1,2053) DRY            (1,2054)
     DRY            (1,2055) DRY            (1,2056) DRY            (1,2057) DRY            (1,2058) DRY            (1,2059)
     DRY            (1,2060) DRY            (1,2061) DRY            (1,2068) DRY            (1,2069) DRY            (1,2070)
     DRY            (1,2071) DRY            (1,2072) DRY            (1,2073) DRY            (1,2075) DRY            (1,2076)
     DRY            (1,2077) DRY            (1,2078) DRY            (1,2079) DRY            (1,2080) DRY            (1,2081)
     DRY            (1,2084) DRY            (1,2085) DRY            (1,2086) DRY            (1,2087) DRY            (1,2088)
     DRY            (1,2089) DRY            (1,2090) DRY            (1,2091) DRY            (1,2092) DRY            (1,2093)
     DRY            (1,2094) DRY            (1,2095) DRY            (1,2102) DRY            (1,2103) DRY            (1,2104)
     DRY            (1,2105) DRY            (1,2106) DRY            (1,2107) DRY            (1,2109) DRY            (1,2110)
     DRY            (1,2111) DRY            (1,2112) DRY            (1,2113) DRY            (1,2114) DRY            (1,2119)
     DRY            (1,2120) DRY            (1,2121) DRY            (1,2122) DRY            (1,2123) DRY            (1,2124)
     DRY            (1,2125) DRY            (1,2126) DRY            (1,2127) DRY            (1,2128) DRY            (1,2129)
     DRY            (1,2130) DRY            (1,2131) DRY            (1,2132) DRY            (1,2133) DRY            (1,2134)
     DRY            (1,2135) DRY            (1,2136) DRY            (1,2142) DRY            (1,2151) DRY            (1,2152)
     DRY            (1,2154) DRY            (1,2155) DRY            (1,2160) DRY            (1,2161) DRY            (1,2162)
     DRY            (1,2163) DRY            (1,2167) DRY            (1,2169) DRY            (1,2170) DRY            (1,2171)
     DRY            (1,2172) DRY            (1,2178) DRY            (1,2179) DRY            (1,2195) DRY            (1,2196)
     DRY            (1,2197) DRY            (1,2198) DRY            (1,2199) DRY            (1,2200) DRY            (1,2201)
     DRY            (1,2203) DRY            (1,2206) DRY            (1,2207) DRY            (1,2209) DRY            (1,2210)
     DRY            (1,2211) DRY            (1,2212) DRY            (1,2213) DRY            (1,2214) DRY            (1,2215)
     DRY            (1,2216) DRY            (1,2217) DRY            (1,2218) DRY            (1,2219) DRY            (1,2220)
     DRY            (1,2221) DRY            (1,2222) DRY            (1,2223) DRY            (1,2224) DRY            (1,2227)
     DRY            (1,2228) DRY            (1,2231) DRY            (1,2232) DRY            (1,2233) DRY            (1,2235)
     DRY            (1,2238) DRY            (1,2243) DRY            (1,2244) DRY            (1,2247) DRY            (1,2248)
     DRY            (1,2249) DRY            (1,2252) DRY            (1,2256) DRY            (1,2257) DRY            (1,2258)
     DRY            (1,2268) DRY            (1,2269) DRY            (1,2270) DRY            (1,2271) DRY            (1,2272)
     DRY            (1,2273) DRY            (1,2274) DRY            (1,2275) DRY            (1,2276) DRY            (1,2277)
     DRY            (1,2278) DRY            (1,2279) DRY            (1,2280) DRY            (1,2281) DRY            (1,2282)
     DRY            (1,2283) DRY            (1,2284) DRY            (1,2285) DRY            (1,2286) DRY            (1,2287)
     DRY            (1,2288) DRY            (1,2289) DRY            (1,2290) DRY            (1,2291) DRY            (1,2292)
     DRY            (1,2293) DRY            (1,2294) DRY            (1,2296) DRY            (1,2297) DRY            (1,2298)
     DRY            (1,2299) DRY            (1,2300) DRY            (1,2301) DRY            (1,2302) DRY            (1,2303)
     DRY            (1,2304) DRY            (1,2305) DRY            (1,2306) DRY            (1,2307) DRY            (1,2308)
     DRY            (1,2309) DRY            (1,2310) DRY            (1,2311) DRY            (1,2312) DRY            (1,2313)
     DRY            (1,2314) DRY            (1,2315) DRY            (1,2316) DRY            (1,2317) DRY            (1,2318)
     DRY            (1,2319) DRY            (1,2320) DRY            (1,2321) DRY            (1,2322) DRY            (1,2323)
     DRY            (1,2324) DRY            (1,2325) DRY            (1,2326) DRY            (1,2332) DRY            (1,2333)
     DRY            (1,2335) DRY            (1,2336) DRY            (1,2337) DRY            (1,2338) DRY            (1,2339)
     DRY            (1,2340) DRY            (1,2341) DRY            (1,2342) DRY            (1,2343) DRY            (1,2364)
     DRY            (1,2386) DRY            (1,2388) DRY            (1,2389) DRY            (1,2390) DRY            (1,2391)
     DRY            (1,2392) DRY            (1,2393) DRY            (1,2398) DRY            (1,2399) DRY            (1,2400)
     DRY            (1,2401) DRY            (1,2402) DRY            (1,2403) DRY            (1,2404) DRY            (1,2405)
     DRY            (1,2406) DRY            (1,2407) DRY            (1,2408) DRY            (1,2409) DRY            (1,2410)
     DRY            (1,2411) DRY            (1,2412) DRY            (1,2419) DRY            (1,2423) DRY            (1,2425)
     DRY            (1,2426) DRY            (1,2427) DRY            (1,2428) DRY            (1,2429) DRY            (1,2430)
     DRY            (1,2431) DRY            (1,2432) DRY            (1,2433) DRY            (1,2434) DRY            (1,2435)
     DRY            (1,2437) DRY            (1,2439) DRY            (1,2440) DRY            (1,2441) DRY            (1,2442)
     DRY            (1,2443) DRY            (1,2444) DRY            (1,2445) DRY            (1,2446) DRY            (1,2447)
     DRY            (1,2448) DRY            (1,2449) DRY            (1,2450) DRY            (1,2451) DRY            (1,2452)
     DRY            (1,2454) DRY            (1,2455) DRY            (1,2456) DRY            (1,2462) DRY            (1,2463)
     DRY            (1,2464) DRY            (1,2465) DRY            (1,2466) DRY            (1,2467) DRY            (1,2468)
     DRY            (1,2469) DRY            (1,2470) DRY            (1,2471) DRY            (1,2472) DRY            (1,2473)
     DRY            (1,2474) DRY            (1,2475) DRY            (1,2476) DRY            (1,2477) DRY            (1,2478)
     DRY            (1,2479) DRY            (1,2480) DRY            (1,2481) DRY            (1,2482) DRY            (1,2483)
     DRY            (1,2484) DRY            (1,2485) DRY            (1,2486) DRY            (1,2487) DRY            (1,2488)
     DRY            (1,2489) DRY            (1,2490) DRY            (1,2491) DRY            (1,2492) DRY            (1,2493)
     DRY            (1,2494) DRY            (1,2495) DRY            (1,2496) DRY            (1,2497) DRY            (1,2498)
     DRY            (1,2499) DRY            (1,2500) DRY            (1,2501) DRY            (1,2502) DRY            (1,2503)
     DRY            (1,2504) DRY            (1,2505) DRY            (1,2506) DRY            (1,2507) DRY            (1,2508)
     DRY            (1,2509) DRY            (1,2510) DRY            (1,2511) DRY            (1,2512) DRY            (1,2513)
     DRY            (1,2514) DRY            (1,2515) DRY            (1,2516) DRY            (1,2517) DRY            (1,2518)
     DRY            (1,2519) DRY            (1,2520) DRY            (1,2521) DRY            (1,2522) DRY            (1,2523)
     DRY            (1,2524) DRY            (1,2525) DRY            (1,2526) DRY            (1,2527) DRY            (1,2528)
     DRY            (1,2529) DRY            (1,2530) DRY            (1,2531) DRY            (1,2535) DRY            (1,2536)
     DRY            (1,2541) DRY            (1,2542) DRY            (1,2543) DRY            (1,2544) DRY            (1,2545)
     DRY            (1,2546) DRY            (1,2547) DRY            (1,2548) DRY            (1,2549) DRY            (1,2550)
     DRY            (1,2551) DRY            (1,2552) DRY            (1,2553) DRY            (1,2554) DRY            (1,2555)
     DRY            (1,2556) DRY            (1,2557) DRY            (1,2558) DRY            (1,2561) DRY            (1,2562)
     DRY            (1,2563) DRY            (1,2564) DRY            (1,2565) DRY            (1,2566) DRY            (1,2567)
     DRY            (1,2568) DRY            (1,2569) DRY            (1,2570) DRY            (1,2571) DRY            (1,2572)
     DRY            (1,2573) DRY            (1,2574) DRY            (1,2575) DRY            (1,2576) DRY            (1,2577)
     DRY            (1,2578) DRY            (1,2579) DRY            (1,2580) DRY            (1,2581) DRY            (1,2582)
     DRY            (1,2583) DRY            (1,2584) DRY            (1,2585) DRY            (1,2586) DRY            (1,2587)
     DRY            (1,2588) DRY            (1,2589) DRY            (1,2590) DRY            (1,2593) DRY            (1,2594)
     DRY            (1,2595) DRY            (1,2596) DRY            (1,2597) DRY            (1,2598) DRY            (1,2599)
     DRY            (1,2600) DRY            (1,2601) DRY            (1,2602) DRY            (1,2603) DRY            (1,2604)
     DRY            (1,2605) DRY            (1,2606) DRY            (1,2607) DRY            (1,2610) DRY            (1,2621)
     DRY            (1,2637) DRY            (1,2638) DRY            (1,2639) DRY            (1,2642) DRY            (1,2643)
     DRY            (1,2644) DRY            (1,2645) DRY            (1,2647) DRY            (1,2648) DRY            (1,2649)
     DRY            (1,2650) DRY            (1,2651) DRY            (1,2652) DRY            (1,2653) DRY            (1,2654)
     DRY            (1,2655) DRY            (1,2656) DRY            (1,2657) DRY            (1,2658) DRY            (1,2659)
     DRY            (1,2660) DRY            (1,2667) DRY            (1,2668) DRY            (1,2670) DRY            (1,2674)
     DRY            (1,2676) DRY            (1,2677) DRY            (1,2679) DRY            (1,2680) DRY            (1,2681)
     DRY            (1,2682) DRY            (1,2683) DRY            (1,2684) DRY            (1,2687) DRY            (1,2698)
     DRY            (1,2703) DRY            (1,2705) DRY            (1,2706) DRY            (1,2710) DRY            (1,2711)
     DRY            (1,2712) DRY            (1,2713) DRY            (1,2714) DRY            (1,2715) DRY            (1,2716)
     DRY            (1,2717) DRY            (1,2718) DRY            (1,2719) DRY            (1,2720) DRY            (1,2721)
     DRY            (1,2722) DRY            (1,2723) DRY            (1,2724) DRY            (1,2725) DRY            (1,2726)
     DRY            (1,2727) DRY            (1,2728) DRY            (1,2729) DRY            (1,2730) DRY            (1,2731)
     DRY            (1,2732) DRY            (1,2733) DRY            (1,2734) DRY            (1,2735) DRY            (1,2736)
     DRY            (1,2737) DRY            (1,2738) DRY            (1,2739) DRY            (1,2742) DRY            (1,2744)
     DRY            (1,2745) DRY            (1,2764) DRY            (1,2765) DRY            (1,2766) DRY            (1,2767)
     DRY            (1,2768) DRY            (1,2769) DRY            (1,2770) DRY            (1,2771) DRY            (1,2813)
     DRY            (1,2814) DRY            (1,2815) DRY            (1,2816) DRY            (1,2817) DRY            (1,2820)
     DRY            (1,2824) DRY            (1,2826) DRY            (1,2827) DRY            (1,2828) DRY            (1,2829)
     DRY            (1,2837) DRY            (1,2838) DRY            (1,2839) DRY            (1,2840) DRY            (1,2841)
     DRY            (1,2842) DRY            (1,2843) DRY            (1,2844) DRY            (1,2845) DRY            (1,2846)
     DRY            (1,2847) DRY            (1,2848) DRY            (1,2849) DRY            (1,2850) DRY            (1,2851)
     DRY            (1,2852) DRY            (1,2853) DRY            (1,2854) DRY            (1,2855) DRY            (1,2856)
     DRY            (1,2857) DRY            (1,2858) DRY            (1,2859) DRY            (1,2860) DRY            (1,2861)
     DRY            (1,2862) DRY            (1,2863) DRY            (1,2864) DRY            (1,2865) DRY            (1,2866)
     DRY            (1,2867) DRY            (1,2868) DRY            (1,2873) DRY            (1,2875) DRY            (1,2876)
     DRY            (1,2877) DRY            (1,2878) DRY            (1,2879) DRY            (1,2880) DRY            (1,2881)
     DRY            (1,2882) DRY            (1,2883) DRY            (1,2884) DRY            (1,2885) DRY            (1,2886)
     DRY            (1,2887) DRY            (1,2888) DRY            (1,2889) DRY            (1,2890) DRY            (1,2891)
     DRY            (1,2892) DRY            (1,2893) DRY            (1,2894) DRY            (1,2896) DRY            (1,2897)
     DRY            (1,2898) DRY            (1,2899) DRY            (1,2900) DRY            (1,2901) DRY            (1,2902)
     DRY            (1,2903) DRY            (1,2904) DRY            (1,2905) DRY            (1,2906) DRY            (1,2907)
     DRY            (1,2908) DRY            (1,2909) DRY            (1,2910) DRY            (1,2911) DRY            (1,2912)
     DRY            (1,2913) DRY            (1,2914) DRY            (1,2915) DRY            (1,2916) DRY            (1,2917)
     DRY            (1,2922) DRY            (1,2923) DRY            (1,2924) DRY            (1,2925) DRY            (1,2927)
     DRY            (1,2929) DRY            (1,2930) DRY            (1,2931) DRY            (1,2932) DRY            (1,2933)
     DRY            (1,2934) DRY            (1,2935) DRY            (1,2936) DRY            (1,2937) DRY            (1,2938)
     DRY            (1,2939) DRY            (1,2940) DRY            (1,2941) DRY            (1,2942) DRY            (1,2943)
     DRY            (1,2944) DRY            (1,2945) DRY            (1,2946) DRY            (1,2947) DRY            (1,2948)
     DRY            (1,2949) DRY            (1,2950) DRY            (1,2951) DRY            (1,2952) DRY            (1,2953)
     DRY            (1,2954) DRY            (1,2955) DRY            (1,2956) DRY            (1,2957) DRY            (1,2958)
     DRY            (1,2959) DRY            (1,2960) DRY            (1,2961) DRY            (1,2962) DRY            (1,2963)
     DRY            (1,2964) DRY            (1,2965) DRY            (1,2966) DRY            (1,2967) DRY            (1,2968)
     DRY            (1,2969) DRY            (1,2970) DRY            (1,2971) DRY            (1,2972) DRY            (1,2973)
     DRY            (1,2974) DRY            (1,2975) DRY            (1,2976) DRY            (1,2977) DRY            (1,2978)
     DRY            (1,2979) DRY            (1,2980) DRY            (1,2981) DRY            (1,2982) DRY            (1,2983)
     DRY            (1,2984) DRY            (1,2985) DRY            (1,2986) DRY            (1,2987) DRY            (1,2988)
     DRY            (1,2989) DRY            (1,2990) DRY            (1,2991) DRY            (1,2992) DRY            (1,2993)
     DRY            (1,2994) DRY            (1,2995) DRY            (1,2996) DRY            (1,2997) DRY            (1,2998)
     DRY            (1,2999) DRY            (1,3000) DRY            (1,3001) DRY            (1,3002) DRY            (1,3003)
     DRY            (1,3004) DRY            (1,3005) DRY            (1,3006) DRY            (1,3007) DRY            (1,3008)
     DRY            (1,3009) DRY            (1,3010) DRY            (1,3011) DRY            (1,3012) DRY            (1,3013)
     DRY            (1,3014) DRY            (1,3015) DRY            (1,3016) DRY            (1,3017) DRY            (1,3018)
     DRY            (1,3019) DRY            (1,3020) DRY            (1,3021) DRY            (1,3022) DRY            (1,3023)
     DRY            (1,3024) DRY            (1,3025) DRY            (1,3026) DRY            (1,3027) DRY            (1,3028)
     DRY            (1,3029) DRY            (1,3030) DRY            (1,3051) DRY            (1,3052) DRY            (1,3053)
     DRY            (1,3054) DRY            (1,3055) DRY            (1,3063) DRY            (1,3066) DRY            (1,3067)
     DRY            (1,3079) DRY            (1,3080) DRY            (1,3085) DRY            (1,3089) DRY            (1,3090)
     DRY            (1,3091) DRY            (1,3097) DRY            (1,3098) DRY            (1,3099) DRY            (1,3100)
     DRY            (1,3101) DRY            (1,3102) DRY            (1,3103) DRY            (1,3104) DRY            (1,3105)
     DRY            (1,3106) DRY            (1,3107) DRY            (1,3108) DRY            (1,3109) DRY            (1,3110)
     DRY            (1,3111) DRY            (1,3112) DRY            (1,3113) DRY            (1,3114) DRY            (1,3115)
     DRY            (1,3116) DRY            (1,3117) DRY            (1,3118) DRY            (1,3119) DRY            (1,3120)
     DRY            (1,3121) DRY            (1,3122) DRY            (1,3123) DRY            (1,3124) DRY            (1,3125)
     DRY            (1,3126) DRY            (1,3127) DRY            (1,3128) DRY            (1,3129) DRY            (1,3130)
     DRY            (1,3131) DRY            (1,3132) DRY            (1,3133) DRY            (1,3134) DRY            (1,3135)
     DRY            (1,3136) DRY            (1,3137) DRY            (1,3138) DRY            (1,3139) DRY            (1,3140)
     DRY            (1,3141) DRY            (1,3142) DRY            (1,3143) DRY            (1,3144) DRY            (1,3145)
     DRY            (1,3146) DRY            (1,3147) DRY            (1,3148) DRY            (1,3149) DRY            (1,3150)
     DRY            (1,3151) DRY            (1,3152) DRY            (1,3153) DRY            (1,3154) DRY            (1,3155)
     DRY            (1,3156) DRY            (1,3157) DRY            (1,3158) DRY            (1,3159) DRY            (1,3160)
     DRY            (1,3161) DRY            (1,3162) DRY            (1,3163) DRY            (1,3164) DRY            (1,3165)
     DRY            (1,3166) DRY            (1,3167) DRY            (1,3168) DRY            (1,3169) DRY            (1,3170)
     DRY            (1,3171) DRY            (1,3172) DRY            (1,3173) DRY            (1,3174) DRY            (1,3175)
     DRY            (1,3176) DRY            (1,3177) DRY            (1,3178) DRY            (1,3179) DRY            (1,3180)
     DRY            (1,3181) DRY            (1,3182) DRY            (1,3183) DRY            (1,3184) DRY            (1,3185)
     DRY            (1,3186) DRY            (1,3187) DRY            (1,3188) DRY            (1,3189) DRY            (1,3190)
     DRY            (1,3191) DRY            (1,3192) DRY            (1,3193) DRY            (1,3195) DRY            (1,3196)
     DRY            (1,3199) DRY            (1,3200) DRY            (1,3201) DRY            (1,3206) DRY            (1,3208)
     DRY            (1,3210) DRY            (1,3212) DRY            (1,3213) DRY            (1,3214) DRY            (1,3215)
     DRY            (1,3216) DRY            (1,3220) DRY            (1,3224) DRY            (1,3228) DRY            (1,3229)
     DRY            (1,3230) DRY            (1,3242) DRY            (1,3243) DRY            (1,3244) DRY            (1,3245)
     DRY            (1,3246) DRY            (1,3247) DRY            (1,3248) DRY            (1,3249) DRY            (1,3250)
     DRY            (1,3253) DRY            (1,3260) DRY            (1,3261) DRY            (1,3262) DRY            (1,3263)
     DRY            (1,3267) DRY            (1,3268) DRY            (1,3269) DRY            (1,3270) DRY            (1,3271)
     DRY            (1,3272) DRY            (1,3273) DRY            (1,3274) DRY            (1,3275) DRY            (1,3276)
     DRY            (1,3277) DRY            (1,3278) DRY            (1,3279) DRY            (1,3280) DRY            (1,3281)
     DRY            (1,3282) DRY            (1,3283) DRY            (1,3284) DRY            (1,3285) DRY            (1,3286)
     DRY            (1,3287) DRY            (1,3288) DRY            (1,3289) DRY            (1,3290) DRY            (1,3291)
     DRY            (1,3292) DRY            (1,3293) DRY            (1,3294) DRY            (1,3295) DRY            (1,3296)
     DRY            (1,3297) DRY            (1,3298) DRY            (1,3299) DRY            (1,3300) DRY            (1,3301)
     DRY            (1,3302) DRY            (1,3303) DRY            (1,3304) DRY            (1,3305) DRY            (1,3306)
     DRY            (1,3307) DRY            (1,3308) DRY            (1,3309) DRY            (1,3310) DRY            (1,3311)
     DRY            (1,3312) DRY            (1,3313) DRY            (1,3314) DRY            (1,3315) DRY            (1,3316)
     DRY            (1,3317) DRY            (1,3318) DRY            (1,3319) DRY            (1,3320) DRY            (1,3321)
     DRY            (1,3322) DRY            (1,3323) DRY            (1,3324) DRY            (1,3325) DRY            (1,3326)
     DRY            (1,3327) DRY            (1,3328) DRY            (1,3329) DRY            (1,3330) DRY            (1,3331)
     DRY            (1,3332) DRY            (1,3333) DRY            (1,3334) DRY            (1,3335) DRY            (1,3336)
     DRY            (1,3337) DRY            (1,3338) DRY            (1,3339) DRY            (1,3340) DRY            (1,3341)
     DRY            (1,3342) DRY            (1,3343) DRY            (1,3344) DRY            (1,3345) DRY            (1,3346)
     DRY            (1,3347) DRY            (1,3348) DRY            (1,3349) DRY            (1,3350) DRY            (1,3351)
     DRY            (1,3352) DRY            (1,3353) DRY            (1,3356) DRY            (1,3361) DRY            (1,3362)
     DRY            (1,3363) DRY            (1,3364) DRY            (1,3365) DRY            (1,3366) DRY            (1,3367)
     DRY            (1,3368) DRY            (1,3369) DRY            (1,3370) DRY            (1,3371) DRY            (1,3372)
     DRY            (1,3373) DRY            (1,3374) DRY            (1,3375) DRY            (1,3376) DRY            (1,3377)
     DRY            (1,3378) DRY            (1,3379) DRY            (1,3380) DRY            (1,3381) DRY            (1,3382)
     DRY            (1,3383) DRY            (1,3391) DRY            (1,3392) DRY            (1,3393) DRY            (1,3394)
     DRY            (1,3395) DRY            (1,3396) DRY            (1,3397) DRY            (1,3398) DRY            (1,3399)
     DRY            (1,3400) DRY            (1,3401) DRY            (1,3402) DRY            (1,3403) DRY            (1,3404)
     DRY            (1,3405) DRY            (1,3406) DRY            (1,3407) DRY            (1,3408) DRY            (1,3409)
     DRY            (1,3411) DRY            (1,3433) DRY            (1,3434) DRY            (1,3435) DRY            (1,3436)
     DRY            (1,3437) DRY            (1,3438) DRY            (1,3439) DRY            (1,3450) DRY            (1,3451)
     DRY            (1,3452) DRY            (1,3453) DRY            (1,3454) DRY            (1,3455) DRY            (1,3456)
     DRY            (1,3457) DRY            (1,3470) DRY            (1,3471) DRY            (1,3472) DRY            (1,3473)
     DRY            (1,3474) DRY            (1,3475) DRY            (1,3476) DRY            (1,3477) DRY            (1,3478)
     DRY            (1,3479) DRY            (1,3480) DRY            (1,3481) DRY            (1,3482) DRY            (1,3512)
     DRY            (1,3522) DRY            (1,3532) DRY            (1,3533) DRY            (1,3534) DRY            (1,3535)
     DRY            (1,3536) DRY            (1,3537) DRY            (1,3538) DRY            (1,3539) DRY            (1,3540)
     DRY            (1,3541) DRY            (1,3542) DRY            (1,3543) DRY            (1,3544) DRY            (1,3545)
     DRY            (1,3546) DRY            (1,3547) DRY            (1,3549) DRY            (1,3550) DRY            (1,3553)
     DRY            (1,3554) DRY            (1,3555) DRY            (1,3561) DRY            (1,3562) DRY            (1,3563)
     DRY            (1,3564) DRY            (1,3565) DRY            (1,3572) DRY            (1,3573) DRY            (1,3574)
     DRY            (1,3575) DRY            (1,3577) DRY            (1,3578) DRY            (1,3579) DRY            (1,3580)
     DRY            (1,3581) DRY            (1,3582) DRY            (1,3583) DRY            (1,3584) DRY            (1,3585)
     DRY            (1,3586) DRY            (1,3587) DRY            (1,3588) DRY            (1,3589) DRY            (1,3591)
     DRY            (1,3593) DRY            (1,3594) DRY            (1,3595) DRY            (1,3596) DRY            (1,3597)
     DRY            (1,3598) DRY            (1,3599) DRY            (1,3600) DRY            (1,3601) DRY            (1,3602)
     DRY            (1,3603) DRY            (1,3604) DRY            (1,3605) DRY            (1,3606) DRY            (1,3607)
     DRY            (1,3608) DRY            (1,3609) DRY            (1,3610) DRY            (1,3611) DRY            (1,3612)
     DRY            (1,3705) DRY            (1,3706) DRY            (1,3707) DRY            (1,3708) DRY            (1,3709)
     DRY            (1,3710) DRY            (1,3711) DRY            (1,3712) DRY            (1,3713) DRY            (1,3714)
     DRY            (1,3715) DRY            (1,3716) DRY            (1,3733) DRY            (1,3739) DRY            (1,3743)
     DRY            (1,3744) DRY            (1,3745) DRY            (1,3746) DRY            (1,3747) DRY            (1,3748)
     DRY            (1,3749) DRY            (1,3750) DRY            (1,3751) DRY            (1,3752) DRY            (1,3753)
     DRY            (1,3754) DRY            (1,3769) DRY            (1,3770) DRY            (1,3771) DRY            (1,3772)
     DRY            (1,3773) DRY            (1,3774) DRY            (1,3775) DRY            (1,3776) DRY            (1,3777)
     DRY            (1,3778) DRY            (1,3779) DRY            (1,3780) DRY            (1,3781) DRY            (1,3782)
     DRY            (1,3783) DRY            (1,3784) DRY            (1,3785) DRY            (1,3786) DRY            (1,3787)
     DRY            (1,3788) DRY            (1,3789) DRY            (1,3791) DRY            (1,3792) DRY            (1,3793)
     DRY            (1,3794) DRY            (1,3796) DRY            (1,3797) DRY            (1,3798) DRY            (1,3799)
     DRY            (1,3800) DRY            (1,3801) DRY            (1,3802) DRY            (1,3803) DRY            (1,3804)
     DRY            (1,3805) DRY            (1,3806) DRY            (1,3807) DRY            (1,3808) DRY            (1,3809)
     DRY            (1,3810) DRY            (1,3812) DRY            (1,3813) DRY            (1,3814) DRY            (1,3815)
     DRY            (1,3816) DRY            (1,3817) DRY            (1,3818) DRY            (1,3819) DRY            (1,3820)
     DRY            (1,3821) DRY            (1,3822) DRY            (1,3823) DRY            (1,3824) DRY            (1,3825)
     DRY            (1,3826) DRY            (1,3827) DRY            (1,3828) DRY            (1,3829) DRY            (1,3830)
     DRY            (1,3831) DRY            (1,3832) DRY            (1,3833) DRY            (1,3834) DRY            (1,3835)
     DRY            (1,3836) DRY            (1,3838) DRY            (1,3839) DRY            (1,3849) DRY            (1,3865)
     DRY            (1,3866) DRY            (1,3867) DRY            (1,3868) DRY            (1,3869) DRY            (1,3870)
     DRY            (1,3871) DRY            (1,3878) DRY            (1,3879) DRY            (1,3880) DRY            (1,3881)
     DRY            (1,3882) DRY            (1,3883) DRY            (1,3884) DRY            (1,3885) DRY            (1,3886)
     DRY            (1,3887) DRY            (1,3888) DRY            (1,3889) DRY            (1,3890) DRY            (1,3891)
     DRY            (1,3892) DRY            (1,3893) DRY            (1,3894) DRY            (1,3895) DRY            (1,3896)
     DRY            (1,3897) DRY            (1,3898) DRY            (1,3899) DRY            (1,3900) DRY            (1,3901)
     DRY            (1,3902) DRY            (1,3903) DRY            (1,3904) DRY            (1,3905) DRY            (1,3906)
     DRY            (1,3907) DRY            (1,3908) DRY            (1,3909) DRY            (1,3910) DRY            (1,3911)
     DRY            (1,3912) DRY            (1,3913) DRY            (1,3914) DRY            (1,3915) DRY            (1,3916)
     DRY            (1,3917) DRY            (1,3918) DRY            (1,3919) DRY            (1,3920) DRY            (1,3921)
     DRY            (1,3922) DRY            (1,3923) DRY            (1,3930) DRY            (1,3936) DRY            (1,3937)
     DRY            (1,3938) DRY            (1,3939) DRY            (1,3940) DRY            (1,3942) DRY            (1,3943)
     DRY            (1,3944) DRY            (1,3945) DRY            (1,3948) DRY            (1,3950) DRY            (1,3951)
     DRY            (1,3952) DRY            (1,3953) DRY            (1,3954) DRY            (1,3955) DRY            (1,3956)
     DRY            (1,3957) DRY            (1,3958) DRY            (1,3959) DRY            (1,3960) DRY            (1,3961)
     DRY            (1,3962) DRY            (1,3963) DRY            (1,3964) DRY            (1,3965) DRY            (1,3966)
     DRY            (1,3967) DRY            (1,3968) DRY            (1,3969) DRY            (1,3970) DRY            (1,3971)
     DRY            (1,3972) DRY            (1,3973) DRY            (1,3976) DRY            (1,3977) DRY            (1,3978)
     DRY            (1,3979) DRY            (1,3980) DRY            (1,3981) DRY            (1,3982) DRY            (1,3991)
     DRY            (1,4007) DRY            (1,4009) DRY            (1,4013) DRY            (1,4014) DRY            (1,4015)
     DRY            (1,4016) DRY            (1,4017) DRY            (1,4018) DRY            (1,4019) DRY            (1,4020)
     DRY            (1,4021) DRY            (1,4022) DRY            (1,4023) DRY            (1,4024) DRY            (1,4025)
     DRY            (1,4026) DRY            (1,4027) DRY            (1,4028) DRY            (1,4029) DRY            (1,4030)
     DRY            (1,4031) DRY            (1,4040) DRY            (1,4041) DRY            (1,4042) DRY            (1,4043)
     DRY            (1,4044) DRY            (1,4045) DRY            (1,4046) DRY            (1,4047) DRY            (1,4065)
     DRY            (1,4066) DRY            (1,4067) DRY            (1,4068) DRY            (1,4069) DRY            (1,4070)
     DRY            (1,4071) DRY            (1,4090) DRY            (1,4091) DRY            (1,4092) DRY            (1,4093)
     DRY            (1,4094) DRY            (1,4095) DRY            (1,4096) DRY            (1,4098) DRY            (1,4099)
     DRY            (1,4100) DRY            (1,4101) DRY            (1,4103) DRY            (1,4104) DRY            (1,4105)
[...]
     DRY            (3,3570) DRY            (3,3576) DRY            (3,3592) DRY            (3,3613) DRY            (3,3655)
     DRY            (3,3658) DRY            (3,3665) DRY            (3,3666) DRY            (3,3679) DRY            (3,3688)
     DRY            (3,3694) DRY            (3,3696) DRY            (3,3698) DRY            (3,3704) DRY            (3,3718)
     DRY            (3,3729) DRY            (3,3731) DRY            (3,3732) DRY            (3,3734) DRY            (3,3736)
     DRY            (3,3737) DRY            (3,3738) DRY            (3,3740) DRY            (3,3741) DRY            (3,3742)
     DRY            (3,3762) DRY            (3,3768) DRY            (3,3793) DRY            (3,3796) DRY            (3,3797)
     DRY            (3,3849) DRY            (3,3872) DRY            (3,3873) DRY            (3,3874) DRY            (3,3875)
     DRY            (3,3876) DRY            (3,3877) DRY            (3,3895) DRY            (3,3925) DRY            (3,3929)
     DRY            (3,3930) DRY            (3,3939) DRY            (3,3940) DRY            (3,3942) DRY            (3,3943)
     DRY            (3,3945) DRY            (3,3949) DRY            (3,3975) DRY            (3,3990) DRY            (3,3991)
     DRY            (3,3992) DRY            (3,3993) DRY            (3,3996) DRY            (3,3999) DRY            (3,4000)
     DRY            (3,4001) DRY            (3,4003) DRY            (3,4006) DRY            (3,4008) DRY            (3,4009)
     DRY            (3,4012) DRY            (3,4028) DRY            (3,4029) DRY            (3,4030) DRY            (3,4108)
     DRY            (3,4123) DRY            (3,4270) DRY            (3,4275) DRY            (3,4276) DRY            (3,4431)
     DRY            (3,4434) DRY            (3,4435) DRY            (3,4436) DRY            (3,4463) DRY            (3,4464)
     DRY            (3,4467) DRY            (3,4473) DRY            (3,4474) DRY            (3,4475) DRY            (3,4483)
     DRY            (3,4487) DRY            (3,4488) DRY            (3,4489) DRY            (3,4505) DRY            (3,4507)
     DRY            (3,4508) DRY            (3,4510) DRY            (3,4512) DRY            (3,4534) DRY            (3,4535)
     DRY            (3,4569) DRY            (3,4571) DRY            (3,4580) DRY            (3,4581) DRY            (3,4582)
     DRY            (3,4583) DRY            (3,4584) DRY            (3,4586) DRY            (3,4587) DRY            (3,4594)
     DRY            (3,4596) DRY            (3,4597) DRY            (3,4598) DRY            (3,4612) DRY            (3,4613)
     DRY            (3,4615) DRY            (3,4616) DRY            (3,4642) DRY            (3,4645) DRY            (3,4646)
     DRY            (3,4660) DRY            (3,4662) DRY            (3,4663) DRY            (3,4699) DRY            (3,4700)
     DRY            (3,4702) DRY            (3,4704) DRY            (3,4705) DRY            (3,4716) DRY            (3,4717)
     DRY            (3,4718) DRY            (3,4719) DRY            (3,4720) DRY            (3,4723) DRY            (3,4725)
     DRY            (3,4727) DRY            (3,4728) DRY            (3,4729) DRY            (3,4730) DRY            (3,4731)
     DRY            (3,4733) DRY            (3,4735) DRY            (3,4736) DRY            (3,4737) DRY            (3,4738)
     DRY            (3,4739) DRY            (3,4741) DRY            (3,4758) DRY            (3,4759) DRY            (3,4760)
     DRY            (3,4761) DRY            (3,4768) DRY            (3,4769) DRY            (3,4806) DRY            (3,4818)
     DRY            (3,4821) DRY            (3,4822) DRY            (3,4823) DRY            (3,4832) DRY            (3,4833)
     DRY            (3,4837) DRY            (3,4885) DRY            (3,4888) DRY            (3,4896) DRY            (3,4899)
     DRY            (3,4912) DRY            (3,4915) DRY            (3,4957) DRY            (3,4966) DRY            (3,4968)
     DRY            (3,4971) DRY            (3,4973) DRY            (3,4974) DRY            (3,4992) DRY            (3,5005)
     DRY            (3,5013) DRY            (3,5014) DRY            (3,5079) DRY            (3,5082) DRY            (3,5086)
     DRY            (3,5237) DRY            (3,5238) DRY            (3,5240) DRY            (3,5241) DRY            (3,5281)
     DRY            (3,5282) DRY            (3,5283) DRY            (3,5297) DRY            (3,5299) DRY            (3,5300)
     DRY            (3,5382) DRY            (3,5383) DRY            (3,5384) DRY            (3,5386) DRY            (3,5397)
     DRY            (3,5399) DRY            (3,5404) DRY            (3,5405) DRY            (3,5421) DRY            (3,5424)
     DRY            (3,5427) DRY            (3,5428) DRY            (3,5431) DRY            (3,5432) DRY            (3,5433)
     DRY            (3,5434) DRY            (3,5435) DRY            (3,5465) DRY            (3,5466) DRY            (3,5496)
     DRY            (3,5497) DRY            (3,5505) DRY            (3,5506) DRY            (3,5512) DRY            (3,5514)
     DRY            (3,5552) DRY            (3,5559) DRY            (3,5589) DRY            (3,5606) DRY            (3,5607)
     DRY            (3,5623) DRY            (3,5624) DRY            (3,5625) DRY            (3,5626) DRY            (3,5627)
     DRY            (3,5629) DRY            (3,5631) DRY            (3,5634) DRY            (3,5635) DRY            (3,5636)
     DRY            (3,5721) DRY            (3,5722) DRY            (3,5724) DRY            (3,5725) DRY            (3,5726)
     DRY            (3,5727) DRY            (3,5729) DRY            (3,5750) DRY            (3,5751) DRY            (3,5752)
     DRY            (3,5753) DRY            (3,5776) DRY            (3,5777) DRY            (3,5780) DRY             (4,145)
     DRY             (4,146) DRY             (4,307) DRY             (4,316) DRY             (4,317) DRY             (4,341)
     DRY             (4,613) DRY             (4,614) DRY             (4,617) DRY             (4,641) DRY             (4,646)
     DRY             (4,647) DRY             (4,648) DRY             (4,672) DRY             (4,743) DRY             (4,744)
     DRY             (4,755) DRY             (4,786) DRY             (4,787) DRY            (4,1126) DRY            (4,1200)
     DRY            (4,1239) DRY            (4,1242) DRY            (4,1243) DRY            (4,1298) DRY            (4,1299)
     DRY            (4,1300) DRY            (4,1301) DRY            (4,1302) DRY            (4,1306) DRY            (4,1309)
     DRY            (4,1408) DRY            (4,1409) DRY            (4,1410) DRY            (4,1528) DRY            (4,1529)
     DRY            (4,1531) DRY            (4,1543) DRY            (4,1555) DRY            (4,1571) DRY            (4,1572)
     DRY            (4,1607) DRY            (4,1611) DRY            (4,2091) DRY            (4,2102) DRY            (4,2104)
     DRY            (4,2105) DRY            (4,2152) DRY            (4,2196) DRY            (4,2197) DRY            (4,2206)
     DRY            (4,2207) DRY            (4,2214) DRY            (4,2215) DRY            (4,2218) DRY            (4,2219)
     DRY            (4,2221) DRY            (4,2222) DRY            (4,2247) DRY            (4,2292) DRY            (4,2341)
     DRY            (4,2398) DRY            (4,2403) DRY            (4,2405) DRY            (4,2408) DRY            (4,2409)
     DRY            (4,2468) DRY            (4,2569) DRY            (4,2570) DRY            (4,2842) DRY            (4,2844)
     DRY            (4,2849) DRY            (4,2913) DRY            (4,3437) DRY            (4,3439) DRY            (4,3473)
     DRY            (4,3573) DRY            (4,3577) DRY            (4,3591) DRY            (4,3708) DRY            (4,3709)
     DRY            (4,3714) DRY            (4,3747) DRY            (4,3772) DRY            (4,3775) DRY            (4,4134)
     DRY            (4,4135) DRY            (4,4544) DRY            (4,4625) DRY            (4,4626) DRY            (4,4630)
     DRY            (4,4743) DRY            (4,4786) DRY            (4,4787) DRY            (4,4788) DRY            (4,4789)
     DRY            (4,4790) DRY            (4,5016) DRY            (4,5018) DRY            (4,5020) DRY            (4,5022)
     DRY            (4,5370) DRY            (4,5371) DRY            (4,5572) DRY            (4,5573) DRY            (4,5574)
     DRY            (4,5787) DRY            (4,5791) DRY            (4,5796) DRY            (4,5804) DRY            (4,5806)
     DRY            (4,5807) DRY            (4,5808) DRY            (4,5878) DRY            (4,5879) DRY            (4,5886)

 CELL CONVERSIONS FOR ITER.=5  STEP=1  PERIOD=1   (NODE or LRC)
     DRY               (1,1) DRY             (1,590) DRY             (1,596) DRY             (1,599) DRY             (1,600)
     DRY             (1,634) DRY             (1,637) DRY             (1,640) DRY             (1,645) DRY            (1,1168)
     DRY            (1,1171) DRY            (1,1173) DRY            (1,1174) DRY            (1,1206) DRY            (1,1257)
     DRY            (1,1264) DRY            (1,1265) DRY            (1,1266) DRY            (1,1295) DRY            (1,1297)
     DRY            (1,1469) DRY            (1,2101) DRY            (1,2147) DRY            (1,2175) DRY            (1,2181)
     DRY            (1,2265) DRY            (1,2330) DRY            (1,2375) DRY            (1,2377) DRY            (1,2378)
     DRY            (1,2436) DRY            (1,2460) DRY            (1,2627) DRY            (1,2631) DRY            (1,2760)
     DRY            (1,2836) DRY            (1,3421) DRY            (1,3430) DRY            (1,3432) DRY            (1,3444)
     DRY            (1,3446) DRY            (1,3460) DRY            (1,3462) DRY            (1,3464) DRY            (1,3484)
     DRY            (1,3496) DRY            (1,3621) DRY            (1,3627) DRY            (1,3628) DRY            (1,3638)
     DRY            (1,3641) DRY            (1,3661) DRY            (1,3662) DRY            (1,3667) DRY            (1,3671)
     DRY            (1,3672) DRY            (1,3678) DRY            (1,3683) DRY            (1,3685) DRY            (1,3686)
     DRY            (1,3757) DRY            (1,3931) DRY            (1,4514) DRY            (1,4550) DRY            (1,4557)
     DRY            (1,4574) DRY            (1,4579) DRY            (1,4618) DRY            (1,4622) DRY            (1,4643)
     DRY            (1,4651) DRY            (1,4675) DRY            (1,4677) DRY            (1,4688) DRY            (1,4690)
     DRY            (1,4692) DRY            (1,4695) DRY            (1,4698) DRY            (1,4710) DRY            (1,4762)
     DRY            (1,5294) DRY            (1,5305) DRY            (1,5306) DRY            (1,5310) DRY            (1,5344)
     DRY            (1,5355) DRY            (1,5357) DRY            (1,5364) DRY            (1,5518) DRY            (1,5531)
     DRY               (2,1) DRY             (2,140) DRY             (2,276) DRY             (2,295) DRY             (2,590)
     DRY             (2,593) DRY             (2,596) DRY             (2,634) DRY             (2,636) DRY             (2,637)
     DRY             (2,645) DRY            (2,1145) DRY            (2,1168) DRY            (2,1169) DRY            (2,1171)
     DRY            (2,1207) DRY            (2,1261) DRY            (2,1264) DRY            (2,1265) DRY            (2,1372)
     DRY            (2,1487) DRY            (2,2099) DRY            (2,2147) DRY            (2,2150) DRY            (2,2372)
     DRY            (2,2379) DRY            (2,2380) DRY            (2,2397) DRY            (2,2608) DRY            (2,2612)
     DRY            (2,2614) DRY            (2,2800) DRY            (2,2811) DRY            (2,3387) DRY            (2,3388)
     DRY            (2,3389) DRY            (2,3422) DRY            (2,3426) DRY            (2,3447) DRY            (2,3462)
     DRY            (2,3463) DRY            (2,3464) DRY            (2,3500) DRY            (2,3624) DRY            (2,3627)
     DRY            (2,3637) DRY            (2,3638) DRY            (2,3642) DRY            (2,3650) DRY            (2,3656)
     DRY            (2,3664) DRY            (2,3685) DRY            (2,3687) DRY            (2,3702) DRY            (2,3757)
     DRY            (2,3987) DRY            (2,4516) DRY            (2,4572) DRY            (2,4577) DRY            (2,4590)
     DRY            (2,4639) DRY            (2,4644) DRY            (2,4661) DRY            (2,4667) DRY            (2,4677)
     DRY            (2,4678) DRY            (2,4686) DRY            (2,4688) DRY            (2,4689) DRY            (2,4694)
     DRY            (2,4696) DRY            (2,4709) DRY            (2,4714) DRY            (2,4764) DRY            (2,4903)
     DRY            (2,4904) DRY            (2,4964) DRY            (2,5002) DRY            (2,5277) DRY            (2,5278)
     DRY            (2,5355) DRY            (2,5363) DRY            (2,5393) DRY            (2,5394) DRY            (2,5555)
     DRY            (2,5730) DRY            (2,5840) DRY            (2,5843) DRY            (2,5846) DRY            (2,5847)
     DRY            (2,5848) DRY             (3,140) DRY             (3,276) DRY             (3,294) DRY             (3,295)
     DRY             (3,585) DRY             (3,593) DRY             (3,597) DRY             (3,602) DRY             (3,635)
     DRY             (3,636) DRY             (3,752) DRY            (3,1147) DRY            (3,1165) DRY            (3,1167)
     DRY            (3,1271) DRY            (3,1274) DRY            (3,1418) DRY            (3,2067) DRY            (3,2117)
     DRY            (3,2140) DRY            (3,2145) DRY            (3,2150) DRY            (3,2158) DRY            (3,2177)
     DRY            (3,2184) DRY            (3,2185) DRY            (3,2186) DRY            (3,2187) DRY            (3,2189)
     DRY            (3,2191) DRY            (3,2204) DRY            (3,2354) DRY            (3,2361) DRY            (3,2367)
     DRY            (3,2369) DRY            (3,2371) DRY            (3,2374) DRY            (3,2382) DRY            (3,2383)
     DRY            (3,2384) DRY            (3,2459) DRY            (3,2702) DRY            (3,2707) DRY            (3,3414)
     DRY            (3,3416) DRY            (3,3417) DRY            (3,3441) DRY            (3,3442) DRY            (3,3443)
     DRY            (3,3445) DRY            (3,3449) DRY            (3,3458) DRY            (3,3463) DRY            (3,3490)
     DRY            (3,3529) DRY            (3,3569) DRY            (3,3571) DRY            (3,3620) DRY            (3,3622)
     DRY            (3,3639) DRY            (3,3640) DRY            (3,3644) DRY            (3,3645) DRY            (3,3646)
     DRY            (3,3680) DRY            (3,3695) DRY            (3,3697) DRY            (3,3699) DRY            (3,3701)
     DRY            (3,3703) DRY            (3,3730) DRY            (3,3758) DRY            (3,3761) DRY            (3,3765)
     DRY            (3,3766) DRY            (3,3767) DRY            (3,3984) DRY            (3,4468) DRY            (3,4498)
     DRY            (3,4499) DRY            (3,4502) DRY            (3,4509) DRY            (3,4511) DRY            (3,4555)
     DRY            (3,4556) DRY            (3,4558) DRY            (3,4591) DRY            (3,4617) DRY            (3,4652)
     DRY            (3,4653) DRY            (3,4656) DRY            (3,4679) DRY            (3,4684) DRY            (3,4693)
     DRY            (3,4715) DRY            (3,4721) DRY            (3,4722) DRY            (3,4732) DRY            (3,4734)
     DRY            (3,4740) DRY            (3,4752) DRY            (3,4765) DRY            (3,5296) DRY            (3,5298)
     DRY            (3,5385) DRY            (3,5391) DRY            (3,5392) DRY            (3,5398) DRY            (3,5400)
     DRY            (3,5403) DRY            (3,5407) DRY            (3,5408) DRY            (3,5409) DRY            (3,5410)
     DRY            (3,5411) DRY            (3,5412) DRY            (3,5413) DRY            (3,5728) DRY            (3,5841)
     DRY            (3,5842) DRY            (3,5849) DRY            (3,5850) DRY             (4,594) DRY            (4,2148)
     DRY            (4,2154) DRY            (4,2211) DRY            (4,3435)

 CELL CONVERSIONS FOR ITER.=6  STEP=1  PERIOD=1   (NODE or LRC)
     DRY            (1,3566) DRY            (1,3643) DRY            (1,5390) DRY            (2,2375) DRY            (2,2460)
     DRY            (2,3641) DRY            (2,3686) DRY            (2,4651) DRY            (2,4695) DRY            (2,5294)
     DRY            (2,5357)

 CELL CONVERSIONS FOR ITER.=9  STEP=1  PERIOD=1   (NODE or LRC)
     DRY            (3,1482)
 UBDSV1 SAVING     FLOW-JA-FACE ON UNIT   1014 AT TIME STEP      1, STRESS PERIOD      1
 UBDSV06 SAVING       DATA-SPDIS IN MODEL MODEL            PACKAGE NPF             CONNECTED TO MODEL MODEL            PACKAGE NPF              ON UNIT   1014 AT TIME STEP      1, STRESS PERIOD      1
 UBDSV06 SAVING              DRN IN MODEL MODEL            PACKAGE MODEL           CONNECTED TO MODEL MODEL            PACKAGE DRN_0            ON UNIT   1014 AT TIME STEP      1, STRESS PERIOD      1
 UBDSV06 SAVING              RCH IN MODEL MODEL            PACKAGE MODEL           CONNECTED TO MODEL MODEL            PACKAGE RCHA             ON UNIT   1014 AT TIME STEP      1, STRESS PERIOD      1
 UBDSV06 SAVING              EVT IN MODEL MODEL            PACKAGE MODEL           CONNECTED TO MODEL MODEL            PACKAGE EVTA             ON UNIT   1014 AT TIME STEP      1, STRESS PERIOD      1

 HEAD WILL BE SAVED ON UNIT 1015 AT END OF TIME STEP    1, STRESS PERIOD    1


  VOLUME BUDGET FOR ENTIRE MODEL AT END OF TIME STEP    1, STRESS PERIOD   1
  ---------------------------------------------------------------------------------------------------

     CUMULATIVE VOLUME      L**3       RATES FOR THIS TIME STEP      L**3/T          PACKAGE NAME    
     ------------------                 ------------------------                     ----------------

           IN:                                      IN:
           ---                                      ---
                 DRN =           0.0000                   DRN =           0.0000     DRN_0           
                 RCH =           1.2178                   RCH =           1.2178     RCHA            
                 EVT =           0.0000                   EVT =           0.0000     EVTA            

            TOTAL IN =           1.2178              TOTAL IN =           1.2178

          OUT:                                     OUT:
          ----                                     ----
                 DRN =           0.9099                   DRN =           0.9099     DRN_0           
                 RCH =           0.0000                   RCH =           0.0000     RCHA            
                 EVT =           0.3078                   EVT =           0.3078     EVTA            

           TOTAL OUT =           1.2177             TOTAL OUT =           1.2177

            IN - OUT =       1.7930E-04              IN - OUT =       1.7930E-04

 PERCENT DISCREPANCY =           0.01     PERCENT DISCREPANCY =           0.01




         TIME SUMMARY AT END OF TIME STEP    1 IN STRESS PERIOD    1
                    SECONDS     MINUTES      HOURS       DAYS        YEARS
                    -----------------------------------------------------------
   TIME STEP LENGTH  1.0000     1.66667E-02 2.77778E-04 1.15741E-05 3.16881E-08
 STRESS PERIOD TIME  1.0000     1.66667E-02 2.77778E-04 1.15741E-05 3.16881E-08
         TOTAL TIME  1.0000     1.66667E-02 2.77778E-04 1.15741E-05 3.16881E-08
