                                   MODFLOW 6
                U.S. GEOLOGICAL SURVEY MODULAR HYDROLOGIC MODEL
                            VERSION 6.0.4 03/13/2019

  MODFLOW 6 compiled Sep 20 2019 01:43:25 with GFORTRAN compiler (ver. 7.4.0)

This software has been approved for release by the U.S. Geological 
Survey (USGS). Although the software has been subjected to rigorous 
review, the USGS reserves the right to update the software as needed 
pursuant to further analysis and review. No warranty, expressed or 
implied, is made by the USGS or the U.S. Government as to the 
functionality of the software and related material nor shall the 
fact of release constitute any such warranty. Furthermore, the 
software is released on condition that neither the USGS nor the U.S. 
Government shall be held liable for any damages resulting from its 
authorized or unauthorized use. Also refer to the USGS Water 
Resources Software User Rights Notice for complete use, copyright, 
and distribution information.


System command used to initiate simulation:
/home/jovyan/voronoiModflow6/modelData/exe/mf6

MODFLOW was compiled using uniform precision.
Real Variables
  PRECISION: 15
  KIND: 8
  TINY (smallest non-zero value):    2.225074-308
  HUGE (largest value):    1.797693+308
Integer Variables
  KIND: 4
  HUGE (largest value): 2147483647
  BIT_SIZE: 32


 OPENED mfsim.nam
 FILE TYPE:NAM   UNIT 1001   STATUS:OLD                 
 FORMAT:FORMATTED              ACCESS:SEQUENTIAL          
 ACTION:READ                

 # File generated by Flopy version 3.3.2 on 01/05/2021 at 17:46:38.

 READING SIMULATION OPTIONS
 END OF SIMULATION OPTIONS

 READING SIMULATION TIMING

 OPENED Model.tdis
 FILE TYPE:TDIS   UNIT 1002   STATUS:OLD                 
 FORMAT:FORMATTED              ACCESS:SEQUENTIAL          
 ACTION:READ                


 TDIS -- TEMPORAL DISCRETIZATION PACKAGE,
 VERSION 1 : 11/13/2014 - INPUT READ FROM UNIT 1002
 # File generated by Flopy version 3.3.2 on 01/05/2021 at 17:46:38.
 PROCESSING TDIS OPTIONS
    SIMULATION TIME UNIT IS SECONDS
 END OF TDIS OPTIONS
 PROCESSING TDIS DIMENSIONS
    1 STRESS PERIOD(S) IN SIMULATION
 END OF TDIS DIMENSIONS
 PROCESSING TDIS PERIODDATA


 STRESS PERIOD     LENGTH       TIME STEPS     MULTIPLIER FOR DELT
 ----------------------------------------------------------------------------
        1         1.000000          1                    1.000
 END OF TDIS PERIODDATA
 END OF SIMULATION TIMING

 READING SIMULATION MODELS
    GWF6 model MODEL will be created as model 1
 END OF SIMULATION MODELS

 READING SIMULATION EXCHANGES
 END OF SIMULATION EXCHANGES

 READING SOLUTIONGROUP

 Creating solution: SLN_1           

 OPENED Model.ims
 FILE TYPE:IMS   UNIT 1012   STATUS:OLD                 
 FORMAT:FORMATTED              ACCESS:SEQUENTIAL          
 ACTION:READ                

 END OF SIMULATION SOLUTIONGROUP

 IMS -- ITERATIVE MODEL SOLUTION PACKAGE, VERSION 6, 4/28/2017
         INPUT READ FROM UNIT 1012
 # File generated by Flopy version 3.3.2 on 01/05/2021 at 17:46:38.

 PROCESSING IMS OPTIONS
 COMPLEX OPTION:
 DEFAULT SOLVER INPUT VALUES REFLECT STRONGLY NONLINEAR MODEL
 END OF IMS OPTIONS

 PROCESSING IMS NONLINEAR
 END OF IMS NONLINEAR DATA
 **UNDER-RELAXATION WILL BE USED***

 ***IMS LINEAR SOLVER WILL BE USED***

 IMSLINEAR -- UNSTRUCTURED LINEAR SOLUTION PACKAGE, VERSION 8, 04/28/2017

 PROCESSING LINEAR DATA
 END OF LINEAR DATA

 OUTER ITERATION CONVERGENCE CRITERION     (HCLOSE) =    0.100000E-01
 OUTER ITERATION BOUNDARY FLOW RESIDUAL (RCLOSEBND) =    0.100000E+00
 MAXIMUM NUMBER OF OUTER ITERATIONS        (MXITER) =       100
 SOLVER PRINTOUT INDEX                     (IPRIMS) =         1
 NONLINEAR ITERATION METHOD            (NONLINMETH) =         3
 LINEAR SOLUTION METHOD                   (LINMETH) =         1
 UNDER-RELAXATION WEIGHT REDUCTION FACTOR   (THETA) =    0.800000E+00
 UNDER-RELAXATION WEIGHT INCREASE INCREMENT (KAPPA) =    0.100000E-03
 UNDER-RELAXATION PREVIOUS HISTORY FACTOR   (GAMMA) =    0.000000E+00
 UNDER-RELAXATIONMOMENTUM TERM          (AMOMENTUM) =    0.000000E+00
    MAXIMUM NUMBER OF BACKTRACKS         (NUMTRACK) =        20
 BACKTRACKING TOLERANCE FACTOR               (BTOL) =    0.105000E+01
 BACKTRACKING REDUCTION FACTOR             (BREDUC) =    0.100000E+00
 BACKTRACKING RESIDUAL LIMIT              (RES_LIM) =    0.200000E-02

       SOLUTION BY THE BICONJUGATE-GRADIENT STABILIZED METHOD
 ------------------------------------------------------------------
 MAXIMUM OF    100 CALLS OF SOLUTION ROUTINE
 MAXIMUM OF    500 INTERNAL ITERATIONS PER CALL TO SOLUTION ROUTINE
 LINEAR ACCELERATION METHOD            = BCGS      
 MATRIX PRECONDITIONING TYPE           = INCOMPLETE LUT      
 MATRIX SCALING APPROACH               = NO SCALING          
 MATRIX REORDERING APPROACH            = ORIGINAL ORDERING        
 NUMBER OF ORTHOGONALIZATIONS          =        2
 HEAD CHANGE CRITERION FOR CLOSURE     =    0.10000E-01
 RESIDUAL CHANGE CRITERION FOR CLOSURE =    0.10000E+00
 RESIDUAL CONVERGENCE OPTION           =        0
 RESIDUAL CONVERGENCE NORM             = INFINITY NORM   
 RELAXATION FACTOR                     =    0.00000E+00
 NUMBER OF LEVELS                      =              5
 DROP TOLERANCE                        =    0.10000E-03


1
                            STRESS PERIOD NO.    1, LENGTH =   1.000000    
                            -----------------------------------------------

                              NUMBER OF TIME STEPS =     1

                               MULTIPLIER FOR DELT =     1.000

                            INITIAL TIME STEP SIZE =   1.000000    


 OUTER ITERATION SUMMARY
 -------------------------------------------------------------------------------------------------------------------------------------------
                       OUTER     INNER BACKTRACK BACKTRACK        INCOMING        OUTGOING         MAXIMUM                    MAXIMUM CHANGE
                   ITERATION ITERATION      FLAG    NUMBER        RESIDUAL        RESIDUAL          CHANGE                    MODEL-(CELLID)
 -------------------------------------------------------------------------------------------------------------------------------------------
 Backtracking              1                   0         0     16.8498         16.8498    
 Linear Solver             1        75                                                        -1367.33                       1_GWF-(1,18684)
 Under-relaxation          1                                                                  -1367.33                       1_GWF-(1,18684)
 Backtracking              2                   0         0    0.889457        0.889457    
 Linear Solver             2       105                                                        -271.502                        1_GWF-(2,2730)
 Under-relaxation          2                                                                  -271.502                        1_GWF-(2,2730)
 Backtracking              3                   0         0    0.369744        0.369744    
 Linear Solver             3        71                                                         221.036                          1_GWF-(4,19)
 Under-relaxation          3                                                                   176.829                          1_GWF-(4,19)
 Backtracking              4                   0         0    0.156325        0.156325    
 Linear Solver             4       100                                                         164.695                        1_GWF-(3,7780)
 Under-relaxation          4                                                                   131.773                        1_GWF-(3,7780)
 Backtracking              5                   0         0    0.141136        0.141136    
 Linear Solver             5        59                                                        -90.8192                         1_GWF-(4,553)
 Under-relaxation          5                                                                  -58.1315                         1_GWF-(4,553)
 Backtracking              6                   0         0    7.257972E-02    7.257972E-02
 Linear Solver             6        40                                                         68.3534                       1_GWF-(3,15564)
 Under-relaxation          6                                                                   54.6827                       1_GWF-(3,15564)
 Backtracking              7                   0         0    6.039743E-02    6.039743E-02
 Linear Solver             7        27                                                        -33.0970                       1_GWF-(3,13815)
 Under-relaxation          7                                                                  -21.1848                       1_GWF-(3,13815)
 Backtracking              8                   0         0    3.608690E-02    3.608690E-02
 Linear Solver             8        12                                                        -13.4571                       1_GWF-(3,13818)
 Under-relaxation          8                                                                  -8.61499                       1_GWF-(3,13818)
 Backtracking              9                   0         0    1.072333E-02    1.072333E-02
 Linear Solver             9        10                                                        -3.47861                       1_GWF-(3,11888)
 Under-relaxation          9                                                                  -2.22728                       1_GWF-(3,11888)
 Backtracking             10                   0         0    4.088083E-03    4.088083E-03
 Linear Solver            10        47                                                        -6.54542                       1_GWF-(4,18377)
 Under-relaxation         10                                                                  -4.19260                       1_GWF-(4,18377)
 Backtracking             11                   1         2    2.400134E-02    4.131084E-03
 Linear Solver            11        29                                                        -9.66832                       1_GWF-(4,18377)
 Under-relaxation         11                                                                  -6.19391                       1_GWF-(4,18377)
 Backtracking             12                   1         2    2.557927E-02    4.184560E-03
 Linear Solver            12        45                                                        -6.36109                       1_GWF-(4,18377)
 Under-relaxation         12                                                                  -4.07581                       1_GWF-(4,18377)
 Backtracking             13                   1         2    2.367247E-02    4.249685E-03
 Linear Solver            13        32                                                        -9.39129                       1_GWF-(4,11989)
 Under-relaxation         13                                                                  -6.01831                       1_GWF-(4,11989)
 Backtracking             14                   1         2    2.372262E-02    4.313309E-03
 Linear Solver            14        30                                                        -8.74647                       1_GWF-(4,15662)
 Under-relaxation         14                                                                  -5.60596                       1_GWF-(4,15662)
 Backtracking             15                   1         2    2.314422E-02    4.386393E-03
 Linear Solver            15        44                                                        -6.15110                       1_GWF-(4,18377)
 Under-relaxation         15                                                                  -3.94310                       1_GWF-(4,18377)
 Backtracking             16                   1         2    2.310738E-02    4.475558E-03
 Linear Solver            16        45                                                        -5.96372                        1_GWF-(4,1221)
 Under-relaxation         16                                                                  -3.82382                        1_GWF-(4,1221)
 Backtracking             17                   1         2    2.313769E-02    4.572788E-03
 Linear Solver            17        29                                                        -7.82918                       1_GWF-(4,18377)
 Under-relaxation         17                                                                  -5.02038                       1_GWF-(4,18377)
 Backtracking             18                   1         2    2.142619E-02    4.659083E-03
 Linear Solver            18        33                                                        -6.81874                       1_GWF-(4,18377)
 Under-relaxation         18                                                                  -4.37313                       1_GWF-(4,18377)
 Backtracking             19                   1         2    2.179119E-02    4.756390E-03
 Linear Solver            19        37                                                        -6.83645                       1_GWF-(4,18377)
 Under-relaxation         19                                                                  -4.38518                       1_GWF-(4,18377)
 Backtracking             20                   1         2    2.131155E-02    4.854089E-03
 Linear Solver            20        43                                                        -7.43774                       1_GWF-(4,15662)
 Under-relaxation         20                                                                  -4.77161                       1_GWF-(4,15662)
 Backtracking             21                   1         2    2.009953E-02    4.944800E-03
 Linear Solver            21        52                                                        -6.30869                        1_GWF-(4,1221)
 Under-relaxation         21                                                                  -4.04816                        1_GWF-(4,1221)
 Backtracking             22                   1         2    2.527522E-02    5.085331E-03
 Linear Solver            22        29                                                        -6.59474                       1_GWF-(4,11989)
 Under-relaxation         22                                                                  -4.23211                       1_GWF-(4,11989)
 Backtracking             23                   1         2    1.920484E-02    5.176455E-03
 Linear Solver            23        29                                                        -6.45309                       1_GWF-(4,11989)
 Under-relaxation         23                                                                  -4.14185                       1_GWF-(4,11989)
 Backtracking             24                   1         2    1.874877E-02    5.266283E-03
 Linear Solver            24        29                                                        -6.25123                       1_GWF-(4,11989)
 Under-relaxation         24                                                                  -4.01291                       1_GWF-(4,11989)
 Backtracking             25                   1         2    1.839788E-02    5.355299E-03
 Linear Solver            25        47                                                        -5.53924                        1_GWF-(4,1221)
 Under-relaxation         25                                                                  -3.55663                        1_GWF-(4,1221)
 Backtracking             26                   1         2    2.248725E-02    5.483357E-03
 Linear Solver            26        12                                                        -2.29533                        1_GWF-(3,9950)
 Under-relaxation         26                                                                  -1.47337                        1_GWF-(3,9950)
 Backtracking             27                   0         0    4.989122E-03    4.989122E-03
 Linear Solver            27        31                                                        -3.98838                       1_GWF-(4,15653)
 Under-relaxation         27                                                                  -2.56150                       1_GWF-(4,15653)
 Backtracking             28                   1         2    1.560110E-02    5.078635E-03
 Linear Solver            28        42                                                        -4.10627                        1_GWF-(5,1221)
 Under-relaxation         28                                                                  -2.63779                        1_GWF-(5,1221)
 Backtracking             29                   1         2    1.859837E-02    5.195292E-03
 Linear Solver            29        42                                                        -4.02117                        1_GWF-(5,1221)
 Under-relaxation         29                                                                  -2.58352                        1_GWF-(5,1221)
 Backtracking             30                   1         2    1.831739E-02    5.309476E-03
 Linear Solver            30        34                                                        -3.65401                       1_GWF-(4,15653)
 Under-relaxation         30                                                                  -2.34785                       1_GWF-(4,15653)
 Backtracking             31                   1         2    1.675602E-02    5.409367E-03
 Linear Solver            31        33                                                        -3.76463                       1_GWF-(4,15653)
 Under-relaxation         31                                                                  -2.41930                       1_GWF-(4,15653)
 Backtracking             32                   1         2    1.604814E-02    5.502622E-03
 Linear Solver            32        34                                                        -3.67669                       1_GWF-(4,15653)
 Under-relaxation         32                                                                  -2.36315                       1_GWF-(4,15653)
 Backtracking             33                   1         2    1.606573E-02    5.595808E-03
 Linear Solver            33        34                                                        -3.67603                       1_GWF-(4,15653)
 Under-relaxation         33                                                                  -2.36310                       1_GWF-(4,15653)
 Backtracking             34                   1         2    1.577185E-02    5.686004E-03
 Linear Solver            34        33                                                        -3.60303                       1_GWF-(4,15653)
 Under-relaxation         34                                                                  -2.31653                       1_GWF-(4,15653)
 Backtracking             35                   1         2    1.574506E-02    5.775635E-03
 Linear Solver            35        29                                                        -3.30389                       1_GWF-(4,12246)
 Under-relaxation         35                                                                  -2.12453                       1_GWF-(4,12246)
 Backtracking             36                   1         2    1.389356E-02    5.847611E-03
 Linear Solver            36        33                                                        -3.40976                        1_GWF-(4,1221)
 Under-relaxation         36                                                                  -2.19309                        1_GWF-(4,1221)
 Backtracking             37                   1         2    1.616719E-02    5.940962E-03
 Linear Solver            37        34                                                        -3.44872                       1_GWF-(4,15653)
 Under-relaxation         37                                                                  -2.21836                       1_GWF-(4,15653)
 Backtracking             38                   1         2    1.536749E-02    6.026355E-03
 Linear Solver            38        33                                                        -3.36474                       1_GWF-(4,15653)
 Under-relaxation         38                                                                  -2.16467                       1_GWF-(4,15653)
 Backtracking             39                   1         2    1.581792E-02    6.115549E-03
 Linear Solver            39        42                                                        -3.78048                        1_GWF-(5,1221)
 Under-relaxation         39                                                                  -2.43266                        1_GWF-(5,1221)
 Backtracking             40                   1         2    1.791155E-02    6.224057E-03
 Linear Solver            40        24                                                        -2.63830                       1_GWF-(5,15662)
 Under-relaxation         40                                                                  -1.69785                       1_GWF-(5,15662)
 Backtracking             41                   1         2    1.138238E-02    6.269537E-03
 Linear Solver            41        24                                                        -2.60441                       1_GWF-(5,15662)
 Under-relaxation         41                                                                  -1.67630                       1_GWF-(5,15662)
 Backtracking             42                   1         2    1.133691E-02    6.314430E-03
 Linear Solver            42        24                                                        -2.57250                       1_GWF-(5,15662)
 Under-relaxation         42                                                                  -1.65602                       1_GWF-(5,15662)
 Backtracking             43                   1         2    1.130851E-02    6.358797E-03
 Linear Solver            43        24                                                        -2.54163                       1_GWF-(5,15662)
 Under-relaxation         43                                                                  -1.63641                       1_GWF-(5,15662)
 Backtracking             44                   1         2    1.127785E-02    6.402605E-03
 Linear Solver            44        24                                                        -2.51041                       1_GWF-(5,15662)
 Under-relaxation         44                                                                  -1.61655                       1_GWF-(5,15662)
 Backtracking             45                   1         2    1.124295E-02    6.445779E-03
 Linear Solver            45        24                                                        -2.48117                       1_GWF-(5,15662)
 Under-relaxation         45                                                                  -1.59797                       1_GWF-(5,15662)
 Backtracking             46                   1         2    1.121282E-02    6.488382E-03
 Linear Solver            46        24                                                        -2.45126                       1_GWF-(5,15662)
 Under-relaxation         46                                                                  -1.57895                       1_GWF-(5,15662)
 Backtracking             47                   1         2    1.117638E-02    6.530362E-03
 Linear Solver            47        24                                                        -2.41968                       1_GWF-(5,15662)
 Under-relaxation         47                                                                  -1.55886                       1_GWF-(5,15662)
 Backtracking             48                   1         2    1.112785E-02    6.571596E-03
 Linear Solver            48        24                                                        -2.39058                       1_GWF-(5,15662)
 Under-relaxation         48                                                                  -1.54035                       1_GWF-(5,15662)
 Backtracking             49                   1         2    1.108719E-02    6.612163E-03
 Linear Solver            49        24                                                        -2.36242                       1_GWF-(5,15662)
 Under-relaxation         49                                                                  -1.52244                       1_GWF-(5,15662)
 Backtracking             50                   1         2    1.104993E-02    6.652095E-03
 Linear Solver            50        24                                                        -2.33549                       1_GWF-(5,15662)
 Under-relaxation         50                                                                  -1.50532                       1_GWF-(5,15662)
 Backtracking             51                   1         2    1.101643E-02    6.691431E-03
 Linear Solver            51        24                                                        -2.30853                       1_GWF-(5,15662)
 Under-relaxation         51                                                                  -1.48817                       1_GWF-(5,15662)
 Backtracking             52                   1         2    1.097854E-02    6.730200E-03
 Linear Solver            52        24                                                        -2.28034                       1_GWF-(5,15662)
 Under-relaxation         52                                                                  -1.47023                       1_GWF-(5,15662)
 Backtracking             53                   1         2    1.093894E-02    6.768310E-03
 Linear Solver            53        24                                                        -2.25847                       1_GWF-(5,15662)
 Under-relaxation         53                                                                  -1.45635                       1_GWF-(5,15662)
 Backtracking             54                   1         2    1.092923E-02    6.806060E-03
 Linear Solver            54        42                                                        -3.14635                        1_GWF-(4,1221)
 Under-relaxation         54                                                                  -2.02933                        1_GWF-(4,1221)
 Backtracking             55                   1         2    1.572931E-02    6.890133E-03
 Linear Solver            55        43                                                        -3.10193                        1_GWF-(4,1221)
 Under-relaxation         55                                                                  -2.00099                        1_GWF-(4,1221)
 Backtracking             56                   1         2    1.559410E-02    6.972280E-03
 Linear Solver            56        25                                                        -2.16885                       1_GWF-(4,18377)
 Under-relaxation         56                                                                  -1.39921                       1_GWF-(4,18377)
 Backtracking             57                   1         2    1.086447E-02    7.007765E-03
 Linear Solver            57        41                                                        -3.04841                        1_GWF-(4,1221)
 Under-relaxation         57                                                                  -1.96708                        1_GWF-(4,1221)
 Backtracking             58                   1         2    1.544437E-02    7.087605E-03
 Linear Solver            58        37                                                        -2.76228                        1_GWF-(4,1221)
 Under-relaxation         58                                                                  -1.78272                        1_GWF-(4,1221)
 Backtracking             59                   1         2    1.430500E-02    7.155807E-03
 Linear Solver            59        37                                                        -2.80674                        1_GWF-(4,1221)
 Under-relaxation         59                                                                  -1.81169                        1_GWF-(4,1221)
 Backtracking             60                   1         2    1.453057E-02    7.225641E-03
 Linear Solver            60        38                                                        -2.98053                        1_GWF-(5,1221)
 Under-relaxation         60                                                                  -1.92417                        1_GWF-(5,1221)
 Backtracking             61                   1         2    1.529898E-02    7.302363E-03
 Linear Solver            61        19                                                        -1.67083                       1_GWF-(6,12000)
 Under-relaxation         61                                                                  -1.07875                       1_GWF-(6,12000)
 Backtracking             62                   1         1    9.300781E-03    7.477699E-03
 Linear Solver            62        19                                                        -1.47771                       1_GWF-(6,18238)
 Under-relaxation         62                                                                 -0.954213                       1_GWF-(6,18238)
 Backtracking             63                   1         1    8.960892E-03    7.604860E-03
 Linear Solver            63        19                                                        -1.39031                          1_GWF-(4,55)
 Under-relaxation         63                                                                 -0.882662                       1_GWF-(6,18238)
 Backtracking             64                   1         1    8.827236E-03    7.709570E-03
 Linear Solver            64        19                                                        -1.35447                          1_GWF-(4,55)
 Under-relaxation         64                                                                 -0.820165                       1_GWF-(6,11989)
 Backtracking             65                   1         1    8.703757E-03    7.794397E-03
 Linear Solver            65        19                                                        -1.31847                          1_GWF-(4,55)
 Under-relaxation         65                                                                 -0.764501                        1_GWF-(4,1223)
 Backtracking             66                   1         1    8.574513E-03    7.860179E-03
 Linear Solver            66        19                                                        -1.29100                          1_GWF-(6,71)
 Under-relaxation         66                                                                 -0.735085                        1_GWF-(4,1223)
 Backtracking             67                   1         1    8.499839E-03    7.912952E-03
 Linear Solver            67        19                                                        -1.26093                         1_GWF-(6,674)
 Under-relaxation         67                                                                 -0.705658                        1_GWF-(4,1223)
 Backtracking             68                   1         1    8.393802E-03    7.951586E-03
 Linear Solver            68        19                                                        -1.23255                         1_GWF-(6,674)
 Under-relaxation         68                                                                 -0.677792                        1_GWF-(4,1223)
 Backtracking             69                   0         0    8.284233E-03    8.284233E-03
 Linear Solver            69        14                                                       -0.690169                       1_GWF-(6,15236)
 Under-relaxation         69                                                                 -0.242386                          1_GWF-(4,55)
 Backtracking             70                   0         0    5.773986E-03    5.773986E-03
 Linear Solver            70        24                                                       -0.997566                        1_GWF-(6,1140)
 Under-relaxation         70                                                                 -0.443825                        1_GWF-(5,1223)
 Backtracking             71                   0         0    6.028890E-03    6.028890E-03
 Linear Solver            71        13                                                       -0.590686                        1_GWF-(6,1140)
 Under-relaxation         71                                                                 -0.158121                        1_GWF-(6,1140)
 Backtracking             72                   0         0    4.019650E-03    4.019650E-03
 Linear Solver            72        10                                                       -0.473822                        1_GWF-(6,1140)
 Under-relaxation         72                                                                 -0.126885                        1_GWF-(6,1140)
 Backtracking             73                   0         0    2.824551E-03    2.824551E-03
 Linear Solver            73        12                                                       -0.558383                       1_GWF-(6,15236)
 Under-relaxation         73                                                                 -0.149585                       1_GWF-(6,15236)
 Backtracking             74                   0         0    2.488944E-03    2.488944E-03
 Linear Solver            74        17                                                       -0.874011                        1_GWF-(6,1140)
 Under-relaxation         74                                                                 -0.365161                         1_GWF-(5,172)
 Backtracking             75                   1         1    3.818853E-03    2.594851E-03
 Linear Solver            75        19                                                        -1.12648                         1_GWF-(5,561)
 Under-relaxation         75                                                                 -0.514354                           1_GWF-(4,7)
 Backtracking             76                   4         1    4.636296E-03    2.763903E-03
 Linear Solver            76        23                                                        -1.18396                          1_GWF-(4,70)
 Under-relaxation         76                                                                 -0.620682                        1_GWF-(5,1223)
 Backtracking             77                   4         1    5.297547E-03    2.981060E-03
 Linear Solver            77        21                                                        -1.16552                         1_GWF-(6,562)
 Under-relaxation         77                                                                 -0.522954                        1_GWF-(5,1223)
 Backtracking             78                   4         1    4.895803E-03    3.152899E-03
 Linear Solver            78        18                                                       -0.911634                         1_GWF-(5,561)
 Under-relaxation         78                                                                 -0.334540                          1_GWF-(4,12)
 Backtracking             79                   1         1    3.770454E-03    3.208973E-03
 Linear Solver            79        15                                                       -0.780869                         1_GWF-(6,562)
 Under-relaxation         79                                                                 -0.242619                          1_GWF-(4,13)
 Backtracking             80                   0         0    3.123496E-03    3.123496E-03
 Linear Solver            80        16                                                       -0.780399                         1_GWF-(6,562)
 Under-relaxation         80                                                                 -0.223876                          1_GWF-(4,12)
 Backtracking             81                   0         0    3.175020E-03    3.175020E-03
 Linear Solver            81         5                                                        0.252136                         1_GWF-(4,261)
 Under-relaxation         81                                                                  0.130623                         1_GWF-(4,261)
 Backtracking             82                   0         0    1.975378E-03    1.975378E-03
 Linear Solver            82        18                                                       -0.851267                         1_GWF-(6,562)
 Under-relaxation         82                                                                 -0.289987                        1_GWF-(6,1366)
 Backtracking             83                   1         1    2.118022E-03    1.925205E-03
 Linear Solver            83        15                                                       -0.824035                        1_GWF-(6,4965)
 Under-relaxation         83                                                                 -0.246713                        1_GWF-(4,4990)
 Backtracking             84                   0         0    1.858531E-03    1.858531E-03
 Linear Solver            84         6                                                        0.148661                          1_GWF-(5,53)
 Under-relaxation         84                                                                  4.930192E-02                      1_GWF-(5,53)
 Backtracking             85                   0         0    1.326518E-03    1.326518E-03
 Linear Solver            85         5                                                        0.110516                          1_GWF-(5,53)
 Under-relaxation         85                                                                  3.666265E-02                      1_GWF-(5,53)
 Backtracking             86                   0         0    1.060446E-03    1.060446E-03
 Linear Solver            86         3                                                        8.544519E-02                      1_GWF-(5,53)
 Under-relaxation         86                                                                  2.835421E-02                      1_GWF-(5,53)
 Backtracking             87                   0         0    9.251837E-04    9.251837E-04
 Linear Solver            87         3                                                        5.822808E-02                      1_GWF-(5,53)
 Under-relaxation         87                                                                  1.932828E-02                      1_GWF-(5,53)
 Backtracking             88                   0         0    8.546199E-04    8.546199E-04
 Linear Solver            88         8                                                       -9.888865E-02                    1_GWF-(6,4955)
 Under-relaxation         88                                                                 -2.663965E-02                    1_GWF-(6,4955)
 Backtracking             89                   0         0    8.412777E-04    8.412777E-04
 Linear Solver            89         7                                                       -7.834649E-02                    1_GWF-(6,4955)
 Under-relaxation         89                                                                 -2.111362E-02                    1_GWF-(6,4955)
 Backtracking             90                   0         0    8.423314E-04    8.423314E-04
 Linear Solver            90         2                                                       -4.542556E-02                   1_GWF-(3,20060)
 Under-relaxation         90                                                                 -5.977393E-03                      1_GWF-(4,70)
 Backtracking             91                   0         0    8.221932E-04    8.221932E-04
 Linear Solver            91         2                                                       -4.428115E-02                   1_GWF-(3,20060)
 Under-relaxation         91                                                                 -4.663696E-03                      1_GWF-(4,70)
 Backtracking             92                   0         0    8.059608E-04    8.059608E-04
 Linear Solver            92         2                                                       -4.337439E-02                   1_GWF-(3,20060)
 Under-relaxation         92                                                                 -3.739014E-03                      1_GWF-(4,70)
 Backtracking             93                   0         0    7.917737E-04    7.917737E-04
 Linear Solver            93         2                                                       -4.259798E-02                   1_GWF-(3,20060)
 Under-relaxation         93                                                                 -3.110782E-03                   1_GWF-(6,11349)
 Backtracking             94                   0         0    7.788838E-04    7.788838E-04
 Linear Solver            94         2                                                       -4.190220E-02                   1_GWF-(3,20060)
 Under-relaxation         94                                                                 -2.648539E-03                   1_GWF-(6,11349)
 Backtracking             95                   0         0    7.669328E-04    7.669328E-04
 Linear Solver            95         2                                                       -4.126065E-02                   1_GWF-(3,20060)
 Under-relaxation         95                                                                 -2.532175E-03                    1_GWF-(6,4959)
 Backtracking             96                   0         0    7.557283E-04    7.557283E-04
 Linear Solver            96         2                                                       -4.065799E-02                   1_GWF-(3,20060)
 Under-relaxation         96                                                                 -2.462844E-03                    1_GWF-(6,4959)
 Backtracking             97                   0         0    7.451542E-04    7.451542E-04
 Linear Solver            97         2                                                       -4.005896E-02                   1_GWF-(3,20060)
 Under-relaxation         97                                                                 -2.386380E-03                    1_GWF-(6,4959)
 Backtracking             98                   0         0    7.350825E-04    7.350825E-04
 Linear Solver            98         2                                                       -3.951089E-02                   1_GWF-(3,20060)
 Under-relaxation         98                                                                 -2.329714E-03                    1_GWF-(6,4959)
 Backtracking             99                   0         0    7.255191E-04    7.255191E-04
 Linear Solver            99         2                                                       -3.898188E-02                   1_GWF-(3,20060)
 Under-relaxation         99                                                                 -2.276885E-03                    1_GWF-(6,4959)
 Backtracking            100                   0         0    7.164170E-04    7.164170E-04
 Linear Solver           100         2                                                       -3.846911E-02                   1_GWF-(3,20060)
 Under-relaxation        100                                                                 -2.229486E-03                    1_GWF-(5,4958)
 Solution 1 did not converge for stress period 1 and time step 1
 Solution Group 1 did not converge for stress period 1 and time step 1
 Simulation convergence failure. Simulation will terminate after output and deallocation.

 INFORMATION ON VARIABLES STORED IN THE MEMORY MANAGER

 Number of allocated integer variables:   10678650
 Number of allocated real variables:    10480946
 Allocated memory in megabytes:     126.562    


 Run end date and time (yyyy/mm/dd hh:mm:ss): 2021/01/05 17:49:15
 Elapsed run time:  2 Minutes, 24.010 Seconds

 Simulation convergence failure occurred 1 time(s).
 Premature termination of simulation.
