                                   MODFLOW 6
                U.S. GEOLOGICAL SURVEY MODULAR HYDROLOGIC MODEL
                          GROUNDWATER FLOW MODEL (GWF)
                            VERSION 6.0.4 03/13/2019

  MODFLOW 6 compiled Sep 20 2019 01:43:25 with GFORTRAN compiler (ver. 7.4.0)

This software has been approved for release by the U.S. Geological 
Survey (USGS). Although the software has been subjected to rigorous 
review, the USGS reserves the right to update the software as needed 
pursuant to further analysis and review. No warranty, expressed or 
implied, is made by the USGS or the U.S. Government as to the 
functionality of the software and related material nor shall the 
fact of release constitute any such warranty. Furthermore, the 
software is released on condition that neither the USGS nor the U.S. 
Government shall be held liable for any damages resulting from its 
authorized or unauthorized use. Also refer to the USGS Water 
Resources Software User Rights Notice for complete use, copyright, 
and distribution information.


MODFLOW was compiled using uniform precision.
Precision of REAL variables: 15


 OPENED Model.disv
 FILE TYPE:DISV6                  UNIT 1005   STATUS:OLD                 
 FORMAT:FORMATTED              ACCESS:SEQUENTIAL          
 ACTION:READ                


 OPENED Model.npf
 FILE TYPE:NPF6                   UNIT 1006   STATUS:OLD                 
 FORMAT:FORMATTED              ACCESS:SEQUENTIAL          
 ACTION:READ                


 OPENED Model.ic
 FILE TYPE:IC6                    UNIT 1007   STATUS:OLD                 
 FORMAT:FORMATTED              ACCESS:SEQUENTIAL          
 ACTION:READ                


 OPENED Model.rcha
 FILE TYPE:RCH6                   UNIT 1008   STATUS:OLD                 
 FORMAT:FORMATTED              ACCESS:SEQUENTIAL          
 ACTION:READ                


 OPENED Model.evta
 FILE TYPE:EVT6                   UNIT 1009   STATUS:OLD                 
 FORMAT:FORMATTED              ACCESS:SEQUENTIAL          
 ACTION:READ                


 OPENED Model.drn
 FILE TYPE:DRN6                   UNIT 1010   STATUS:OLD                 
 FORMAT:FORMATTED              ACCESS:SEQUENTIAL          
 ACTION:READ                


 OPENED Model.oc
 FILE TYPE:OC6                    UNIT 1011   STATUS:OLD                 
 FORMAT:FORMATTED              ACCESS:SEQUENTIAL          
 ACTION:READ                

 NAMEFILE OPTIONS:
    FLOWS WILL BE SAVED TO BUDGET FILE SPECIFIED IN OUTPUT CONTROL

 DISV -- VERTEX GRID DISCRETIZATION PACKAGE, VERSION 1 : 12/23/2015 - INPUT READ FROM UNIT 1005


 # File generated by Flopy version 3.3.2 on 01/05/2021 at 17:46:38.

 PROCESSING DISCRETIZATION OPTIONS
   MODEL LENGTH UNIT IS UNDEFINED
 END OF DISCRETIZATION OPTIONS

 PROCESSING DISCRETIZATION DIMENSIONS
   NLAY = 6
   NCPL = 21793
   NVERT = 43707
 END OF DISCRETIZATION DIMENSIONS

 PROCESSING GRIDDATA
 END PROCESSING GRIDDATA

 PROCESSING VERTICES
   SUCCESSFULLY READ 43707 (X,Y) COORDINATES
   MINIMUM X COORDINATE =     613882.507000000    
   MAXIMUM X COORDINATE =     635562.672000000    
   MINIMUM Y COORDINATE =     8348920.07000000    
   MAXIMUM Y COORDINATE =     8375404.95000000    
 END PROCESSING VERTICES

 PROCESSING CELL2D
   SUCCESSFULLY READ 21793 CELL2D INFORMATION ENTRIES
   MINIMUM X CELL CENTER =     614041.752000000    
   MAXIMUM X CELL CENTER =     635458.814000000    
   MINIMUM Y CELL CENTER =     8349139.77000000    
   MAXIMUM Y CELL CENTER =     8375246.26000000    
   MAXIMUM NUMBER OF CELL2D VERTICES IS 11 FOR CELL 153
 END PROCESSING VERTICES

 NPF -- NODE PROPERTY FLOW PACKAGE, VERSION 1, 3/30/2015 INPUT READ FROM UNIT 1006


 # File generated by Flopy version 3.3.2 on 01/05/2021 at 17:46:50.
 PROCESSING NPF OPTIONS
 END OF NPF OPTIONS

 DRN   -- DRN PACKAGE, VERSION 8, 2/22/2014 INPUT READ FROM UNIT 1010
 # File generated by Flopy version 3.3.2 on 01/05/2021 at 17:46:50.

 PROCESSING DRN OPTIONS
 END OF DRN OPTIONS

 PROCESSING DRN DIMENSIONS
    MAXBOUND =    3876
 END OF DRN DIMENSIONS

 RCH   -- RCH PACKAGE, VERSION 8, 2/22/2014 INPUT READ FROM UNIT 1008
 # File generated by Flopy version 3.3.2 on 01/05/2021 at 17:46:50.

 PROCESSING RCH OPTIONS
    RECHARGE INPUT WILL BE READ AS ARRAY(S).
 END OF RCH OPTIONS

 EVT   -- EVT PACKAGE, VERSION 8, 2/22/2014 INPUT READ FROM UNIT 1009
 # File generated by Flopy version 3.3.2 on 01/05/2021 at 17:46:50.

 PROCESSING EVT OPTIONS
    EVAPOTRANSPIRATION INPUT WILL BE READ AS ARRAYS.
 END OF EVT OPTIONS

 IC -- INITIAL CONDITIONS PACKAGE, VERSION 8, 3/28/2015 INPUT READ FROM UNIT 1007
 # File generated by Flopy version 3.3.2 on 01/05/2021 at 17:46:50.
 PROCESSING GRIDDATA

     INITIAL HEAD =   4837.000    
 END PROCESSING GRIDDATA
 PROCESSING GRIDDATA

                ICELLTYPE = 1 FOR LAYER 1

                ICELLTYPE = 1 FOR LAYER 2

                ICELLTYPE = 1 FOR LAYER 3

                ICELLTYPE = 1 FOR LAYER 4

                ICELLTYPE = 0 FOR LAYER 5

                ICELLTYPE = 0 FOR LAYER 6

                        K =  0.1000000E-03 FOR LAYER 1

                        K =  0.1000000E-03 FOR LAYER 2

                        K =  0.5000000E-04 FOR LAYER 3

                        K =  0.1000000E-05 FOR LAYER 4

                        K =  0.5000000E-06 FOR LAYER 5

                        K =  0.5000000E-06 FOR LAYER 6

                      K33 =  0.1000000E-03 FOR LAYER 1

                      K33 =  0.1000000E-03 FOR LAYER 2

                      K33 =  0.5000000E-04 FOR LAYER 3

                      K33 =  0.1000000E-05 FOR LAYER 4

                      K33 =  0.5000000E-06 FOR LAYER 5

                      K33 =  0.5000000E-06 FOR LAYER 6
 K22 not provided.  Assuming K22 = K.
 END PROCESSING GRIDDATA
    BINARY GRID INFORMATION WILL BE WRITTEN TO:
      UNIT NUMBER: 1013
      FILE NAME: Model.disv.grb

 OPENED Model.disv.grb
 FILE TYPE:DATA(BINARY)   UNIT 1013   STATUS:REPLACE             
 FORMAT:UNFORMATTED            ACCESS:STREAM              
 ACTION:READWRITE           

      THE LAST TIME STEP WILL BE PRINTED
      THE LAST TIME STEP WILL BE PRINTED
 # File generated by Flopy version 3.3.2 on 01/05/2021 at 17:46:51.
 PROCESSING OC OPTIONS
    BUDGET INFORMATION WILL BE WRITTEN TO:
      UNIT NUMBER: 1014
      FILE NAME: Model.cbc

 OPENED Model.cbc
 FILE TYPE:DATA(BINARY)   UNIT 1014   STATUS:REPLACE             
 FORMAT:UNFORMATTED            ACCESS:STREAM              
 ACTION:READWRITE           

    HEAD INFORMATION WILL BE WRITTEN TO:
      UNIT NUMBER: 1015
      FILE NAME: Model.hds

 OPENED Model.hds
 FILE TYPE:DATA(BINARY)   UNIT 1015   STATUS:REPLACE             
 FORMAT:UNFORMATTED            ACCESS:STREAM              
 ACTION:READWRITE           

 END OF OC OPTIONS

 BEGIN READING OUTPUT CONTROL FOR STRESS PERIOD 1
      ALL TIME STEPS WILL BE SAVED
      ALL TIME STEPS WILL BE SAVED

 END READING OUTPUT CONTROL FOR STRESS PERIOD 1

                 RECHARGE =  0.4756469E-08

  EVAPOTRANSPIRATION RATE =  0.3805175E-07

         EXTINCTION DEPTH =   1.000000    

 CELL CONVERSIONS FOR ITER.=2  STEP=1  PERIOD=1   (NODE or LRC)
     DRY               (1,3) DRY               (1,4) DRY               (1,5) DRY               (1,6) DRY               (1,7)
     DRY               (1,8) DRY               (1,9) DRY              (1,10) DRY              (1,11) DRY              (1,12)
     DRY              (1,13) DRY              (1,14) DRY              (1,15) DRY              (1,16) DRY              (1,17)
     DRY              (1,18) DRY              (1,19) DRY              (1,20) DRY              (1,21) DRY              (1,22)
     DRY              (1,23) DRY              (1,24) DRY              (1,25) DRY              (1,26) DRY              (1,27)
     DRY              (1,28) DRY              (1,29) DRY              (1,30) DRY              (1,31) DRY              (1,32)
     DRY              (1,39) DRY              (1,40) DRY              (1,41) DRY              (1,42) DRY              (1,43)
     DRY              (1,44) DRY              (1,45) DRY              (1,46) DRY              (1,47) DRY              (1,48)
     DRY              (1,49) DRY              (1,50) DRY              (1,51) DRY              (1,52) DRY              (1,53)
     DRY              (1,54) DRY              (1,55) DRY              (1,56) DRY              (1,57) DRY              (1,58)
     DRY              (1,59) DRY              (1,60) DRY              (1,61) DRY              (1,62) DRY              (1,63)
     DRY              (1,64) DRY              (1,65) DRY              (1,66) DRY              (1,67) DRY              (1,68)
     DRY              (1,69) DRY              (1,70) DRY              (1,71) DRY              (1,72) DRY              (1,73)
     DRY              (1,74) DRY              (1,75) DRY              (1,76) DRY              (1,77) DRY              (1,78)
     DRY              (1,79) DRY              (1,80) DRY              (1,81) DRY              (1,82) DRY              (1,83)
     DRY              (1,84) DRY              (1,85) DRY              (1,86) DRY              (1,91) DRY              (1,92)
     DRY              (1,93) DRY              (1,94) DRY              (1,95) DRY              (1,98) DRY              (1,99)
     DRY             (1,100) DRY             (1,101) DRY             (1,102) DRY             (1,103) DRY             (1,104)
     DRY             (1,105) DRY             (1,106) DRY             (1,107) DRY             (1,108) DRY             (1,109)
     DRY             (1,110) DRY             (1,111) DRY             (1,112) DRY             (1,113) DRY             (1,114)
     DRY             (1,115) DRY             (1,116) DRY             (1,117) DRY             (1,118) DRY             (1,119)
     DRY             (1,120) DRY             (1,121) DRY             (1,122) DRY             (1,123) DRY             (1,124)
     DRY             (1,125) DRY             (1,126) DRY             (1,127) DRY             (1,128) DRY             (1,129)
     DRY             (1,130) DRY             (1,132) DRY             (1,133) DRY             (1,134) DRY             (1,135)
     DRY             (1,136) DRY             (1,137) DRY             (1,138) DRY             (1,139) DRY             (1,140)
     DRY             (1,141) DRY             (1,142) DRY             (1,143) DRY             (1,144) DRY             (1,145)
     DRY             (1,146) DRY             (1,147) DRY             (1,148) DRY             (1,149) DRY             (1,150)
     DRY             (1,151) DRY             (1,152) DRY             (1,153) DRY             (1,154) DRY             (1,155)
     DRY             (1,156) DRY             (1,157) DRY             (1,158) DRY             (1,159) DRY             (1,160)
     DRY             (1,161) DRY             (1,162) DRY             (1,163) DRY             (1,164) DRY             (1,165)
     DRY             (1,166) DRY             (1,167) DRY             (1,168) DRY             (1,169) DRY             (1,170)
     DRY             (1,171) DRY             (1,173) DRY             (1,174) DRY             (1,175) DRY             (1,176)
     DRY             (1,177) DRY             (1,178) DRY             (1,179) DRY             (1,180) DRY             (1,181)
     DRY             (1,182) DRY             (1,183) DRY             (1,184) DRY             (1,185) DRY             (1,186)
     DRY             (1,187) DRY             (1,188) DRY             (1,189) DRY             (1,190) DRY             (1,191)
     DRY             (1,192) DRY             (1,193) DRY             (1,194) DRY             (1,195) DRY             (1,197)
     DRY             (1,198) DRY             (1,199) DRY             (1,200) DRY             (1,201) DRY             (1,202)
     DRY             (1,203) DRY             (1,204) DRY             (1,205) DRY             (1,206) DRY             (1,207)
     DRY             (1,209) DRY             (1,210) DRY             (1,211) DRY             (1,212) DRY             (1,213)
     DRY             (1,214) DRY             (1,215) DRY             (1,216) DRY             (1,217) DRY             (1,218)
     DRY             (1,219) DRY             (1,220) DRY             (1,221) DRY             (1,222) DRY             (1,223)
     DRY             (1,224) DRY             (1,225) DRY             (1,226) DRY             (1,227) DRY             (1,228)
     DRY             (1,229) DRY             (1,230) DRY             (1,231) DRY             (1,232) DRY             (1,233)
     DRY             (1,234) DRY             (1,235) DRY             (1,236) DRY             (1,237) DRY             (1,239)
     DRY             (1,240) DRY             (1,242) DRY             (1,243) DRY             (1,244) DRY             (1,245)
     DRY             (1,246) DRY             (1,247) DRY             (1,248) DRY             (1,249) DRY             (1,250)
     DRY             (1,251) DRY             (1,252) DRY             (1,253) DRY             (1,254) DRY             (1,255)
     DRY             (1,256) DRY             (1,257) DRY             (1,258) DRY             (1,259) DRY             (1,261)
     DRY             (1,262) DRY             (1,263) DRY             (1,264) DRY             (1,265) DRY             (1,267)
     DRY             (1,268) DRY             (1,269) DRY             (1,270) DRY             (1,271) DRY             (1,272)
     DRY             (1,273) DRY             (1,274) DRY             (1,275) DRY             (1,276) DRY             (1,277)
     DRY             (1,279) DRY             (1,280) DRY             (1,281) DRY             (1,282) DRY             (1,283)
     DRY             (1,284) DRY             (1,285) DRY             (1,286) DRY             (1,287) DRY             (1,288)
     DRY             (1,289) DRY             (1,290) DRY             (1,291) DRY             (1,292) DRY             (1,293)
     DRY             (1,294) DRY             (1,295) DRY             (1,296) DRY             (1,297) DRY             (1,298)
     DRY             (1,299) DRY             (1,300) DRY             (1,301) DRY             (1,302) DRY             (1,303)
     DRY             (1,304) DRY             (1,305) DRY             (1,306) DRY             (1,307) DRY             (1,308)
     DRY             (1,309) DRY             (1,310) DRY             (1,311) DRY             (1,312) DRY             (1,313)
     DRY             (1,314) DRY             (1,315) DRY             (1,316) DRY             (1,317) DRY             (1,320)
     DRY             (1,321) DRY             (1,322) DRY             (1,323) DRY             (1,324) DRY             (1,325)
     DRY             (1,326) DRY             (1,327) DRY             (1,328) DRY             (1,329) DRY             (1,330)
     DRY             (1,331) DRY             (1,332) DRY             (1,333) DRY             (1,334) DRY             (1,335)
     DRY             (1,336) DRY             (1,337) DRY             (1,338) DRY             (1,339) DRY             (1,340)
     DRY             (1,341) DRY             (1,342) DRY             (1,343) DRY             (1,344) DRY             (1,345)
     DRY             (1,346) DRY             (1,347) DRY             (1,348) DRY             (1,349) DRY             (1,350)
     DRY             (1,351) DRY             (1,352) DRY             (1,353) DRY             (1,354) DRY             (1,355)
     DRY             (1,356) DRY             (1,357) DRY             (1,358) DRY             (1,359) DRY             (1,360)
     DRY             (1,361) DRY             (1,362) DRY             (1,363) DRY             (1,364) DRY             (1,365)
     DRY             (1,366) DRY             (1,367) DRY             (1,368) DRY             (1,369) DRY             (1,370)
     DRY             (1,374) DRY             (1,375) DRY             (1,376) DRY             (1,377) DRY             (1,378)
     DRY             (1,379) DRY             (1,380) DRY             (1,381) DRY             (1,382) DRY             (1,383)
     DRY             (1,384) DRY             (1,385) DRY             (1,386) DRY             (1,390) DRY             (1,391)
     DRY             (1,392) DRY             (1,393) DRY             (1,394) DRY             (1,395) DRY             (1,396)
     DRY             (1,397) DRY             (1,398) DRY             (1,399) DRY             (1,412) DRY             (1,413)
     DRY             (1,414) DRY             (1,415) DRY             (1,417) DRY             (1,418) DRY             (1,419)
     DRY             (1,420) DRY             (1,421) DRY             (1,422) DRY             (1,425) DRY             (1,426)
     DRY             (1,427) DRY             (1,429) DRY             (1,430) DRY             (1,431) DRY             (1,432)
     DRY             (1,433) DRY             (1,434) DRY             (1,435) DRY             (1,436) DRY             (1,437)
     DRY             (1,438) DRY             (1,439) DRY             (1,440) DRY             (1,443) DRY             (1,444)
     DRY             (1,445) DRY             (1,446) DRY             (1,447) DRY             (1,448) DRY             (1,449)
     DRY             (1,450) DRY             (1,451) DRY             (1,452) DRY             (1,453) DRY             (1,454)
     DRY             (1,455) DRY             (1,456) DRY             (1,457) DRY             (1,458) DRY             (1,459)
     DRY             (1,460) DRY             (1,461) DRY             (1,462) DRY             (1,463) DRY             (1,464)
     DRY             (1,465) DRY             (1,466) DRY             (1,467) DRY             (1,468) DRY             (1,469)
     DRY             (1,470) DRY             (1,471) DRY             (1,472) DRY             (1,473) DRY             (1,474)
     DRY             (1,475) DRY             (1,476) DRY             (1,477) DRY             (1,478) DRY             (1,479)
     DRY             (1,480) DRY             (1,481) DRY             (1,482) DRY             (1,483) DRY             (1,484)
     DRY             (1,485) DRY             (1,486) DRY             (1,488) DRY             (1,489) DRY             (1,490)
     DRY             (1,491) DRY             (1,492) DRY             (1,493) DRY             (1,494) DRY             (1,495)
     DRY             (1,496) DRY             (1,497) DRY             (1,498) DRY             (1,499) DRY             (1,500)
     DRY             (1,501) DRY             (1,502) DRY             (1,503) DRY             (1,504) DRY             (1,507)
     DRY             (1,508) DRY             (1,509) DRY             (1,510) DRY             (1,511) DRY             (1,512)
     DRY             (1,513) DRY             (1,514) DRY             (1,515) DRY             (1,516) DRY             (1,517)
     DRY             (1,522) DRY             (1,524) DRY             (1,526) DRY             (1,527) DRY             (1,528)
     DRY             (1,530) DRY             (1,531) DRY             (1,532) DRY             (1,533) DRY             (1,534)
     DRY             (1,535) DRY             (1,536) DRY             (1,537) DRY             (1,538) DRY             (1,539)
     DRY             (1,540) DRY             (1,541) DRY             (1,542) DRY             (1,543) DRY             (1,544)
     DRY             (1,545) DRY             (1,546) DRY             (1,548) DRY             (1,549) DRY             (1,550)
     DRY             (1,556) DRY             (1,564) DRY             (1,565) DRY             (1,566) DRY             (1,567)
     DRY             (1,568) DRY             (1,569) DRY             (1,570) DRY             (1,571) DRY             (1,574)
     DRY             (1,575) DRY             (1,576) DRY             (1,577) DRY             (1,578) DRY             (1,579)
     DRY             (1,580) DRY             (1,581) DRY             (1,582) DRY             (1,583) DRY             (1,584)
     DRY             (1,585) DRY             (1,586) DRY             (1,587) DRY             (1,588) DRY             (1,589)
     DRY             (1,592) DRY             (1,593) DRY             (1,594) DRY             (1,595) DRY             (1,596)
     DRY             (1,597) DRY             (1,598) DRY             (1,600) DRY             (1,601) DRY             (1,602)
     DRY             (1,603) DRY             (1,604) DRY             (1,605) DRY             (1,606) DRY             (1,607)
     DRY             (1,608) DRY             (1,613) DRY             (1,614) DRY             (1,615) DRY             (1,616)
     DRY             (1,617) DRY             (1,619) DRY             (1,623) DRY             (1,626) DRY             (1,627)
     DRY             (1,628) DRY             (1,629) DRY             (1,630) DRY             (1,631) DRY             (1,632)
     DRY             (1,633) DRY             (1,634) DRY             (1,635) DRY             (1,636) DRY             (1,637)
     DRY             (1,647) DRY             (1,648) DRY             (1,649) DRY             (1,650) DRY             (1,653)
     DRY             (1,654) DRY             (1,655) DRY             (1,656) DRY             (1,657) DRY             (1,658)
     DRY             (1,659) DRY             (1,660) DRY             (1,661) DRY             (1,662) DRY             (1,664)
     DRY             (1,669) DRY             (1,670) DRY             (1,672) DRY             (1,674) DRY             (1,675)
     DRY             (1,676) DRY             (1,677) DRY             (1,678) DRY             (1,679) DRY             (1,680)
     DRY             (1,681) DRY             (1,683) DRY             (1,684) DRY             (1,685) DRY             (1,686)
     DRY             (1,687) DRY             (1,688) DRY             (1,689) DRY             (1,690) DRY             (1,691)
     DRY             (1,692) DRY             (1,693) DRY             (1,694) DRY             (1,695) DRY             (1,696)
     DRY             (1,697) DRY             (1,698) DRY             (1,699) DRY             (1,700) DRY             (1,701)
     DRY             (1,702) DRY             (1,703) DRY             (1,704) DRY             (1,705) DRY             (1,706)
     DRY             (1,707) DRY             (1,708) DRY             (1,709) DRY             (1,710) DRY             (1,711)
     DRY             (1,712) DRY             (1,713) DRY             (1,714) DRY             (1,715) DRY             (1,716)
     DRY             (1,717) DRY             (1,718) DRY             (1,719) DRY             (1,720) DRY             (1,721)
     DRY             (1,722) DRY             (1,723) DRY             (1,724) DRY             (1,725) DRY             (1,726)
     DRY             (1,727) DRY             (1,728) DRY             (1,729) DRY             (1,730) DRY             (1,731)
     DRY             (1,732) DRY             (1,733) DRY             (1,734) DRY             (1,735) DRY             (1,736)
     DRY             (1,737) DRY             (1,738) DRY             (1,739) DRY             (1,740) DRY             (1,741)
     DRY             (1,742) DRY             (1,743) DRY             (1,744) DRY             (1,745) DRY             (1,746)
     DRY             (1,747) DRY             (1,748) DRY             (1,749) DRY             (1,756) DRY             (1,759)
     DRY             (1,765) DRY             (1,766) DRY             (1,767) DRY             (1,768) DRY             (1,769)
     DRY             (1,770) DRY             (1,771) DRY             (1,773) DRY             (1,774) DRY             (1,775)
     DRY             (1,776) DRY             (1,777) DRY             (1,778) DRY             (1,779) DRY             (1,780)
     DRY             (1,782) DRY             (1,783) DRY             (1,784) DRY             (1,785) DRY             (1,786)
     DRY             (1,787) DRY             (1,788) DRY             (1,789) DRY             (1,790) DRY             (1,791)
     DRY             (1,792) DRY             (1,793) DRY             (1,794) DRY             (1,795) DRY             (1,796)
     DRY             (1,797) DRY             (1,798) DRY             (1,799) DRY             (1,800) DRY             (1,801)
     DRY             (1,802) DRY             (1,803) DRY             (1,804) DRY             (1,805) DRY             (1,806)
     DRY             (1,807) DRY             (1,808) DRY             (1,809) DRY             (1,810) DRY             (1,811)
     DRY             (1,812) DRY             (1,813) DRY             (1,814) DRY             (1,818) DRY             (1,819)
     DRY             (1,820) DRY             (1,821) DRY             (1,822) DRY             (1,823) DRY             (1,824)
     DRY             (1,825) DRY             (1,826) DRY             (1,827) DRY             (1,828) DRY             (1,829)
     DRY             (1,830) DRY             (1,831) DRY             (1,832) DRY             (1,833) DRY             (1,834)
     DRY             (1,835) DRY             (1,836) DRY             (1,837) DRY             (1,838) DRY             (1,839)
     DRY             (1,840) DRY             (1,841) DRY             (1,842) DRY             (1,846) DRY             (1,847)
     DRY             (1,848) DRY             (1,849) DRY             (1,850) DRY             (1,851) DRY             (1,852)
     DRY             (1,856) DRY             (1,861) DRY             (1,862) DRY             (1,863) DRY             (1,864)
     DRY             (1,865) DRY             (1,866) DRY             (1,867) DRY             (1,868) DRY             (1,869)
     DRY             (1,870) DRY             (1,871) DRY             (1,872) DRY             (1,873) DRY             (1,874)
     DRY             (1,875) DRY             (1,876) DRY             (1,878) DRY             (1,880) DRY             (1,881)
     DRY             (1,882) DRY             (1,883) DRY             (1,889) DRY             (1,890) DRY             (1,891)
     DRY             (1,892) DRY             (1,895) DRY             (1,896) DRY             (1,897) DRY             (1,898)
     DRY             (1,899) DRY             (1,900) DRY             (1,901) DRY             (1,902) DRY             (1,904)
     DRY             (1,905) DRY             (1,906) DRY             (1,907) DRY             (1,908) DRY             (1,911)
     DRY             (1,912) DRY             (1,913) DRY             (1,914) DRY             (1,915) DRY             (1,916)
     DRY             (1,917) DRY             (1,918) DRY             (1,919) DRY             (1,922) DRY             (1,923)
     DRY             (1,924) DRY             (1,925) DRY             (1,926) DRY             (1,927) DRY             (1,928)
     DRY             (1,929) DRY             (1,932) DRY             (1,934) DRY             (1,936) DRY             (1,937)
     DRY             (1,940) DRY             (1,948) DRY             (1,949) DRY             (1,950) DRY             (1,951)
     DRY             (1,953) DRY             (1,955) DRY             (1,956) DRY             (1,957) DRY             (1,961)
     DRY             (1,962) DRY             (1,963) DRY             (1,964) DRY             (1,965) DRY             (1,966)
     DRY             (1,967) DRY             (1,968) DRY             (1,969) DRY             (1,970) DRY             (1,971)
     DRY             (1,972) DRY             (1,973) DRY             (1,974) DRY             (1,975) DRY             (1,976)
     DRY             (1,977) DRY             (1,978) DRY             (1,979) DRY             (1,980) DRY             (1,981)
     DRY             (1,982) DRY             (1,983) DRY             (1,984) DRY             (1,985) DRY             (1,986)
     DRY             (1,987) DRY             (1,988) DRY             (1,989) DRY             (1,990) DRY             (1,991)
     DRY             (1,992) DRY             (1,993) DRY             (1,994) DRY             (1,995) DRY             (1,996)
     DRY             (1,997) DRY             (1,998) DRY             (1,999) DRY            (1,1000) DRY            (1,1001)
     DRY            (1,1002) DRY            (1,1003) DRY            (1,1004) DRY            (1,1005) DRY            (1,1006)
     DRY            (1,1007) DRY            (1,1008) DRY            (1,1009) DRY            (1,1010) DRY            (1,1011)
     DRY            (1,1012) DRY            (1,1013) DRY            (1,1014) DRY            (1,1015) DRY            (1,1017)
     DRY            (1,1018) DRY            (1,1019) DRY            (1,1020) DRY            (1,1023) DRY            (1,1024)
     DRY            (1,1025) DRY            (1,1030) DRY            (1,1032) DRY            (1,1033) DRY            (1,1034)
     DRY            (1,1035) DRY            (1,1036) DRY            (1,1039) DRY            (1,1040) DRY            (1,1042)
     DRY            (1,1043) DRY            (1,1044) DRY            (1,1045) DRY            (1,1046) DRY            (1,1047)
     DRY            (1,1048) DRY            (1,1049) DRY            (1,1050) DRY            (1,1051) DRY            (1,1052)
     DRY            (1,1053) DRY            (1,1054) DRY            (1,1055) DRY            (1,1056) DRY            (1,1057)
     DRY            (1,1058) DRY            (1,1059) DRY            (1,1060) DRY            (1,1061) DRY            (1,1062)
     DRY            (1,1063) DRY            (1,1064) DRY            (1,1065) DRY            (1,1067) DRY            (1,1068)
     DRY            (1,1069) DRY            (1,1070) DRY            (1,1085) DRY            (1,1086) DRY            (1,1087)
     DRY            (1,1088) DRY            (1,1089) DRY            (1,1090) DRY            (1,1097) DRY            (1,1098)
     DRY            (1,1099) DRY            (1,1100) DRY            (1,1101) DRY            (1,1102) DRY            (1,1103)
     DRY            (1,1104) DRY            (1,1105) DRY            (1,1106) DRY            (1,1107) DRY            (1,1108)
     DRY            (1,1109) DRY            (1,1111) DRY            (1,1112) DRY            (1,1113) DRY            (1,1120)
     DRY            (1,1121) DRY            (1,1122) DRY            (1,1125) DRY            (1,1127) DRY            (1,1128)
     DRY            (1,1129) DRY            (1,1130) DRY            (1,1131) DRY            (1,1143) DRY            (1,1144)
     DRY            (1,1145) DRY            (1,1146) DRY            (1,1147) DRY            (1,1148) DRY            (1,1149)
     DRY            (1,1150) DRY            (1,1151) DRY            (1,1152) DRY            (1,1153) DRY            (1,1154)
     DRY            (1,1155) DRY            (1,1156) DRY            (1,1157) DRY            (1,1158) DRY            (1,1161)
     DRY            (1,1162) DRY            (1,1163) DRY            (1,1166) DRY            (1,1167) DRY            (1,1168)
     DRY            (1,1169) DRY            (1,1170) DRY            (1,1171) DRY            (1,1172) DRY            (1,1173)
     DRY            (1,1174) DRY            (1,1175) DRY            (1,1176) DRY            (1,1177) DRY            (1,1178)
     DRY            (1,1179) DRY            (1,1180) DRY            (1,1181) DRY            (1,1182) DRY            (1,1183)
     DRY            (1,1184) DRY            (1,1185) DRY            (1,1189) DRY            (1,1190) DRY            (1,1191)
     DRY            (1,1193) DRY            (1,1194) DRY            (1,1195) DRY            (1,1196) DRY            (1,1197)
     DRY            (1,1198) DRY            (1,1199) DRY            (1,1200) DRY            (1,1201) DRY            (1,1202)
     DRY            (1,1203) DRY            (1,1204) DRY            (1,1205) DRY            (1,1206) DRY            (1,1207)
     DRY            (1,1208) DRY            (1,1209) DRY            (1,1210) DRY            (1,1215) DRY            (1,1216)
     DRY            (1,1218) DRY            (1,1220) DRY            (1,1221) DRY            (1,1222) DRY            (1,1223)
     DRY            (1,1224) DRY            (1,1225) DRY            (1,1226) DRY            (1,1227) DRY            (1,1229)
     DRY            (1,1230) DRY            (1,1231) DRY            (1,1236) DRY            (1,1237) DRY            (1,1238)
     DRY            (1,1239) DRY            (1,1240) DRY            (1,1241) DRY            (1,1242) DRY            (1,1243)
     DRY            (1,1244) DRY            (1,1245) DRY            (1,1246) DRY            (1,1250) DRY            (1,1254)
     DRY            (1,1255) DRY            (1,1256) DRY            (1,1257) DRY            (1,1258) DRY            (1,1259)
     DRY            (1,1260) DRY            (1,1261) DRY            (1,1262) DRY            (1,1263) DRY            (1,1264)
     DRY            (1,1265) DRY            (1,1269) DRY            (1,1271) DRY            (1,1273) DRY            (1,1282)
     DRY            (1,1283) DRY            (1,1284) DRY            (1,1285) DRY            (1,1286) DRY            (1,1287)
     DRY            (1,1288) DRY            (1,1289) DRY            (1,1290) DRY            (1,1291) DRY            (1,1292)
     DRY            (1,1293) DRY            (1,1294) DRY            (1,1295) DRY            (1,1296) DRY            (1,1304)
     DRY            (1,1306) DRY            (1,1307) DRY            (1,1308) DRY            (1,1309) DRY            (1,1310)
     DRY            (1,1311) DRY            (1,1312) DRY            (1,1313) DRY            (1,1314) DRY            (1,1315)
     DRY            (1,1316) DRY            (1,1317) DRY            (1,1318) DRY            (1,1319) DRY            (1,1320)
     DRY            (1,1321) DRY            (1,1322) DRY            (1,1323) DRY            (1,1324) DRY            (1,1326)
     DRY            (1,1327) DRY            (1,1328) DRY            (1,1329) DRY            (1,1330) DRY            (1,1331)
     DRY            (1,1332) DRY            (1,1333) DRY            (1,1334) DRY            (1,1335) DRY            (1,1337)
     DRY            (1,1338) DRY            (1,1345) DRY            (1,1346) DRY            (1,1347) DRY            (1,1348)
     DRY            (1,1349) DRY            (1,1351) DRY            (1,1353) DRY            (1,1354) DRY            (1,1355)
     DRY            (1,1356) DRY            (1,1357) DRY            (1,1358) DRY            (1,1359) DRY            (1,1360)
     DRY            (1,1361) DRY            (1,1362) DRY            (1,1363) DRY            (1,1364) DRY            (1,1365)
     DRY            (1,1366) DRY            (1,1367) DRY            (1,1368) DRY            (1,1369) DRY            (1,1370)
     DRY            (1,1371) DRY            (1,1372) DRY            (1,1373) DRY            (1,1374) DRY            (1,1375)
     DRY            (1,1376) DRY            (1,1377) DRY            (1,1378) DRY            (1,1379) DRY            (1,1380)
     DRY            (1,1381) DRY            (1,1382) DRY            (1,1383) DRY            (1,1384) DRY            (1,1385)
     DRY            (1,1386) DRY            (1,1387) DRY            (1,1388) DRY            (1,1389) DRY            (1,1390)
     DRY            (1,1391) DRY            (1,1392) DRY            (1,1393) DRY            (1,1394) DRY            (1,1395)
     DRY            (1,1396) DRY            (1,1397) DRY            (1,1398) DRY            (1,1399) DRY            (1,1400)
     DRY            (1,1401) DRY            (1,1402) DRY            (1,1403) DRY            (1,1404) DRY            (1,1405)
     DRY            (1,1406) DRY            (1,1407) DRY            (1,1408) DRY            (1,1409) DRY            (1,1410)
     DRY            (1,1411) DRY            (1,1412) DRY            (1,1413) DRY            (1,1414) DRY            (1,1415)
     DRY            (1,1416) DRY            (1,1417) DRY            (1,1418) DRY            (1,1419) DRY            (1,1420)
     DRY            (1,1421) DRY            (1,1422) DRY            (1,1423) DRY            (1,1424) DRY            (1,1425)
     DRY            (1,1426) DRY            (1,1428) DRY            (1,1429) DRY            (1,1430) DRY            (1,1431)
     DRY            (1,1432) DRY            (1,1433) DRY            (1,1434) DRY            (1,1435) DRY            (1,1436)
     DRY            (1,1437) DRY            (1,1438) DRY            (1,1439) DRY            (1,1440) DRY            (1,1441)
     DRY            (1,1442) DRY            (1,1443) DRY            (1,1444) DRY            (1,1445) DRY            (1,1446)
     DRY            (1,1447) DRY            (1,1448) DRY            (1,1449) DRY            (1,1450) DRY            (1,1451)
     DRY            (1,1452) DRY            (1,1453) DRY            (1,1454) DRY            (1,1455) DRY            (1,1456)
     DRY            (1,1457) DRY            (1,1458) DRY            (1,1459) DRY            (1,1460) DRY            (1,1461)
     DRY            (1,1462) DRY            (1,1463) DRY            (1,1464) DRY            (1,1465) DRY            (1,1466)
     DRY            (1,1467) DRY            (1,1468) DRY            (1,1469) DRY            (1,1470) DRY            (1,1471)
     DRY            (1,1472) DRY            (1,1473) DRY            (1,1474) DRY            (1,1475) DRY            (1,1476)
     DRY            (1,1477) DRY            (1,1478) DRY            (1,1479) DRY            (1,1480) DRY            (1,1481)
     DRY            (1,1482) DRY            (1,1483) DRY            (1,1484) DRY            (1,1485) DRY            (1,1486)
     DRY            (1,1487) DRY            (1,1488) DRY            (1,1489) DRY            (1,1490) DRY            (1,1491)
     DRY            (1,1492) DRY            (1,1493) DRY            (1,1495) DRY            (1,1498) DRY            (1,1499)
     DRY            (1,1500) DRY            (1,1501) DRY            (1,1502) DRY            (1,1503) DRY            (1,1504)
     DRY            (1,1515) DRY            (1,1521) DRY            (1,1522) DRY            (1,1523) DRY            (1,1524)
     DRY            (1,1525) DRY            (1,1530) DRY            (1,1531) DRY            (1,1532) DRY            (1,1533)
     DRY            (1,1534) DRY            (1,1535) DRY            (1,1536) DRY            (1,1538) DRY            (1,1539)
     DRY            (1,1540) DRY            (1,1541) DRY            (1,1542) DRY            (1,1543) DRY            (1,1544)
     DRY            (1,1546) DRY            (1,1548) DRY            (1,1550) DRY            (1,1551) DRY            (1,1552)
     DRY            (1,1553) DRY            (1,1554) DRY            (1,1555) DRY            (1,1556) DRY            (1,1557)
     DRY            (1,1558) DRY            (1,1559) DRY            (1,1560) DRY            (1,1561) DRY            (1,1562)
     DRY            (1,1563) DRY            (1,1564) DRY            (1,1565) DRY            (1,1566) DRY            (1,1567)
     DRY            (1,1568) DRY            (1,1569) DRY            (1,1570) DRY            (1,1571) DRY            (1,1572)
     DRY            (1,1573) DRY            (1,1574) DRY            (1,1575) DRY            (1,1576) DRY            (1,1577)
     DRY            (1,1578) DRY            (1,1579) DRY            (1,1580) DRY            (1,1581) DRY            (1,1582)
     DRY            (1,1583) DRY            (1,1584) DRY            (1,1585) DRY            (1,1586) DRY            (1,1587)
     DRY            (1,1588) DRY            (1,1589) DRY            (1,1590) DRY            (1,1591) DRY            (1,1592)
     DRY            (1,1593) DRY            (1,1594) DRY            (1,1595) DRY            (1,1596) DRY            (1,1597)
     DRY            (1,1598) DRY            (1,1599) DRY            (1,1601) DRY            (1,1602) DRY            (1,1603)
     DRY            (1,1604) DRY            (1,1605) DRY            (1,1606) DRY            (1,1607) DRY            (1,1615)
     DRY            (1,1618) DRY            (1,1622) DRY            (1,1630) DRY            (1,1631) DRY            (1,1632)
     DRY            (1,1633) DRY            (1,1634) DRY            (1,1635) DRY            (1,1636) DRY            (1,1637)
     DRY            (1,1638) DRY            (1,1639) DRY            (1,1640) DRY            (1,1641) DRY            (1,1642)
     DRY            (1,1643) DRY            (1,1646) DRY            (1,1647) DRY            (1,1648) DRY            (1,1649)
     DRY            (1,1650) DRY            (1,1651) DRY            (1,1652) DRY            (1,1653) DRY            (1,1654)
     DRY            (1,1655) DRY            (1,1656) DRY            (1,1657) DRY            (1,1658) DRY            (1,1659)
     DRY            (1,1660) DRY            (1,1661) DRY            (1,1662) DRY            (1,1663) DRY            (1,1664)
     DRY            (1,1665) DRY            (1,1666) DRY            (1,1667) DRY            (1,1676) DRY            (1,1679)
     DRY            (1,1683) DRY            (1,1684) DRY            (1,1685) DRY            (1,1686) DRY            (1,1687)
     DRY            (1,1688) DRY            (1,1689) DRY            (1,1690) DRY            (1,1691) DRY            (1,1692)
     DRY            (1,1693) DRY            (1,1694) DRY            (1,1695) DRY            (1,1696) DRY            (1,1697)
     DRY            (1,1698) DRY            (1,1702) DRY            (1,1704) DRY            (1,1706) DRY            (1,1708)
     DRY            (1,1709) DRY            (1,1710) DRY            (1,1711) DRY            (1,1712) DRY            (1,1713)
     DRY            (1,1714) DRY            (1,1715) DRY            (1,1716) DRY            (1,1717) DRY            (1,1720)
     DRY            (1,1722) DRY            (1,1723) DRY            (1,1736) DRY            (1,1739) DRY            (1,1741)
     DRY            (1,1742) DRY            (1,1743) DRY            (1,1744) DRY            (1,1745) DRY            (1,1746)
     DRY            (1,1748) DRY            (1,1749) DRY            (1,1750) DRY            (1,1751) DRY            (1,1752)
     DRY            (1,1753) DRY            (1,1754) DRY            (1,1755) DRY            (1,1756) DRY            (1,1757)
     DRY            (1,1758) DRY            (1,1759) DRY            (1,1760) DRY            (1,1761) DRY            (1,1762)
     DRY            (1,1763) DRY            (1,1781) DRY            (1,1782) DRY            (1,1785) DRY            (1,1786)
     DRY            (1,1787) DRY            (1,1788) DRY            (1,1789) DRY            (1,1790) DRY            (1,1791)
     DRY            (1,1792) DRY            (1,1793) DRY            (1,1794) DRY            (1,1795) DRY            (1,1796)
     DRY            (1,1797) DRY            (1,1798) DRY            (1,1799) DRY            (1,1800) DRY            (1,1801)
     DRY            (1,1802) DRY            (1,1803) DRY            (1,1804) DRY            (1,1805) DRY            (1,1806)
     DRY            (1,1821) DRY            (1,1825) DRY            (1,1826) DRY            (1,1827) DRY            (1,1828)
     DRY            (1,1829) DRY            (1,1830) DRY            (1,1831) DRY            (1,1832) DRY            (1,1833)
     DRY            (1,1834) DRY            (1,1835) DRY            (1,1836) DRY            (1,1837) DRY            (1,1838)
     DRY            (1,1839) DRY            (1,1840) DRY            (1,1842) DRY            (1,1845) DRY            (1,1846)
     DRY            (1,1847) DRY            (1,1848) DRY            (1,1849) DRY            (1,1850) DRY            (1,1851)
     DRY            (1,1852) DRY            (1,1853) DRY            (1,1854) DRY            (1,1855) DRY            (1,1856)
     DRY            (1,1857) DRY            (1,1858) DRY            (1,1859) DRY            (1,1860) DRY            (1,1861)
     DRY            (1,1862) DRY            (1,1863) DRY            (1,1864) DRY            (1,1865) DRY            (1,1866)
     DRY            (1,1867) DRY            (1,1868) DRY            (1,1869) DRY            (1,1870) DRY            (1,1880)
     DRY            (1,1881) DRY            (1,1882) DRY            (1,1883) DRY            (1,1884) DRY            (1,1885)
     DRY            (1,1886) DRY            (1,1887) DRY            (1,1888) DRY            (1,1889) DRY            (1,1892)
     DRY            (1,1893) DRY            (1,1896) DRY            (1,1904) DRY            (1,1905) DRY            (1,1906)
     DRY            (1,1911) DRY            (1,1921) DRY            (1,1923) DRY            (1,1925) DRY            (1,1926)
     DRY            (1,1927) DRY            (1,1928) DRY            (1,1929) DRY            (1,1930) DRY            (1,1931)
     DRY            (1,1932) DRY            (1,1933) DRY            (1,1934) DRY            (1,1935) DRY            (1,1936)
     DRY            (1,1937) DRY            (1,1938) DRY            (1,1939) DRY            (1,1940) DRY            (1,1941)
     DRY            (1,1942) DRY            (1,1943) DRY            (1,1944) DRY            (1,1945) DRY            (1,1946)
     DRY            (1,1947) DRY            (1,1948) DRY            (1,1949) DRY            (1,1950) DRY            (1,1951)
     DRY            (1,1952) DRY            (1,1955) DRY            (1,1961) DRY            (1,1962) DRY            (1,1964)
     DRY            (1,1968) DRY            (1,1972) DRY            (1,1974) DRY            (1,1975) DRY            (1,1976)
     DRY            (1,1982) DRY            (1,1985) DRY            (1,1986) DRY            (1,1987) DRY            (1,1996)
     DRY            (1,1997) DRY            (1,1998) DRY            (1,1999) DRY            (1,2000) DRY            (1,2002)
     DRY            (1,2003) DRY            (1,2004) DRY            (1,2005) DRY            (1,2006) DRY            (1,2007)
     DRY            (1,2008) DRY            (1,2010) DRY            (1,2011) DRY            (1,2012) DRY            (1,2013)
     DRY            (1,2014) DRY            (1,2015) DRY            (1,2017) DRY            (1,2018) DRY            (1,2020)
     DRY            (1,2023) DRY            (1,2024) DRY            (1,2025) DRY            (1,2026) DRY            (1,2027)
     DRY            (1,2028) DRY            (1,2029) DRY            (1,2030) DRY            (1,2031) DRY            (1,2033)
     DRY            (1,2034) DRY            (1,2035) DRY            (1,2036) DRY            (1,2037) DRY            (1,2038)
     DRY            (1,2039) DRY            (1,2040) DRY            (1,2041) DRY            (1,2042) DRY            (1,2043)
     DRY            (1,2050) DRY            (1,2051) DRY            (1,2052) DRY            (1,2053) DRY            (1,2054)
     DRY            (1,2055) DRY            (1,2056) DRY            (1,2057) DRY            (1,2058) DRY            (1,2059)
     DRY            (1,2060) DRY            (1,2061) DRY            (1,2062) DRY            (1,2063) DRY            (1,2064)
     DRY            (1,2065) DRY            (1,2066) DRY            (1,2067) DRY            (1,2068) DRY            (1,2069)
     DRY            (1,2070) DRY            (1,2071) DRY            (1,2072) DRY            (1,2073) DRY            (1,2074)
     DRY            (1,2075) DRY            (1,2076) DRY            (1,2077) DRY            (1,2078) DRY            (1,2079)
     DRY            (1,2080) DRY            (1,2081) DRY            (1,2082) DRY            (1,2083) DRY            (1,2084)
     DRY            (1,2085) DRY            (1,2086) DRY            (1,2087) DRY            (1,2088) DRY            (1,2089)
     DRY            (1,2090) DRY            (1,2091) DRY            (1,2092) DRY            (1,2093) DRY            (1,2094)
     DRY            (1,2095) DRY            (1,2096) DRY            (1,2097) DRY            (1,2098) DRY            (1,2099)
     DRY            (1,2100) DRY            (1,2101) DRY            (1,2102) DRY            (1,2103) DRY            (1,2104)
     DRY            (1,2105) DRY            (1,2106) DRY            (1,2107) DRY            (1,2108) DRY            (1,2109)
     DRY            (1,2110) DRY            (1,2111) DRY            (1,2112) DRY            (1,2113) DRY            (1,2114)
     DRY            (1,2115) DRY            (1,2116) DRY            (1,2117) DRY            (1,2118) DRY            (1,2121)
     DRY            (1,2122) DRY            (1,2123) DRY            (1,2124) DRY            (1,2125) DRY            (1,2126)
     DRY            (1,2127) DRY            (1,2128) DRY            (1,2129) DRY            (1,2130) DRY            (1,2131)
     DRY            (1,2132) DRY            (1,2134) DRY            (1,2135) DRY            (1,2136) DRY            (1,2137)
     DRY            (1,2138) DRY            (1,2139) DRY            (1,2140) DRY            (1,2141) DRY            (1,2142)
     DRY            (1,2143) DRY            (1,2144) DRY            (1,2145) DRY            (1,2146) DRY            (1,2147)
     DRY            (1,2148) DRY            (1,2149) DRY            (1,2150) DRY            (1,2151) DRY            (1,2152)
     DRY            (1,2153) DRY            (1,2154) DRY            (1,2155) DRY            (1,2156) DRY            (1,2160)
     DRY            (1,2163) DRY            (1,2165) DRY            (1,2166) DRY            (1,2168) DRY            (1,2170)
     DRY            (1,2172) DRY            (1,2173) DRY            (1,2178) DRY            (1,2179) DRY            (1,2180)
     DRY            (1,2181) DRY            (1,2182) DRY            (1,2188) DRY            (1,2190) DRY            (1,2191)
     DRY            (1,2197) DRY            (1,2198) DRY            (1,2199) DRY            (1,2200) DRY            (1,2201)
     DRY            (1,2202) DRY            (1,2203) DRY            (1,2204) DRY            (1,2205) DRY            (1,2206)
     DRY            (1,2207) DRY            (1,2208) DRY            (1,2209) DRY            (1,2210) DRY            (1,2216)
     DRY            (1,2217) DRY            (1,2218) DRY            (1,2219) DRY            (1,2220) DRY            (1,2222)
     DRY            (1,2223) DRY            (1,2224) DRY            (1,2225) DRY            (1,2226) DRY            (1,2227)
     DRY            (1,2228) DRY            (1,2229) DRY            (1,2230) DRY            (1,2231) DRY            (1,2232)
     DRY            (1,2233) DRY            (1,2234) DRY            (1,2235) DRY            (1,2236) DRY            (1,2237)
     DRY            (1,2238) DRY            (1,2239) DRY            (1,2240) DRY            (1,2241) DRY            (1,2242)
     DRY            (1,2243) DRY            (1,2287) DRY            (1,2309) DRY            (1,2312) DRY            (1,2313)
     DRY            (1,2318) DRY            (1,2319) DRY            (1,2320) DRY            (1,2321) DRY            (1,2322)
     DRY            (1,2323) DRY            (1,2324) DRY            (1,2325) DRY            (1,2326) DRY            (1,2327)
     DRY            (1,2328) DRY            (1,2329) DRY            (1,2330) DRY            (1,2331) DRY            (1,2332)
     DRY            (1,2333) DRY            (1,2334) DRY            (1,2335) DRY            (1,2336) DRY            (1,2338)
     DRY            (1,2339) DRY            (1,2340) DRY            (1,2341) DRY            (1,2354) DRY            (1,2355)
     DRY            (1,2356) DRY            (1,2357) DRY            (1,2358) DRY            (1,2359) DRY            (1,2360)
     DRY            (1,2361) DRY            (1,2362) DRY            (1,2363) DRY            (1,2364) DRY            (1,2365)
     DRY            (1,2366) DRY            (1,2367) DRY            (1,2369) DRY            (1,2370) DRY            (1,2373)
     DRY            (1,2377) DRY            (1,2378) DRY            (1,2383) DRY            (1,2385) DRY            (1,2388)
     DRY            (1,2389) DRY            (1,2390) DRY            (1,2391) DRY            (1,2392) DRY            (1,2393)
     DRY            (1,2394) DRY            (1,2395) DRY            (1,2396) DRY            (1,2397) DRY            (1,2400)
     DRY            (1,2402) DRY            (1,2403) DRY            (1,2404) DRY            (1,2413) DRY            (1,2414)
     DRY            (1,2416) DRY            (1,2418) DRY            (1,2419) DRY            (1,2420) DRY            (1,2421)
     DRY            (1,2422) DRY            (1,2423) DRY            (1,2424) DRY            (1,2425) DRY            (1,2426)
     DRY            (1,2427) DRY            (1,2428) DRY            (1,2429) DRY            (1,2430) DRY            (1,2434)
     DRY            (1,2435) DRY            (1,2437) DRY            (1,2438) DRY            (1,2455) DRY            (1,2460)
     DRY            (1,2466) DRY            (1,2467) DRY            (1,2468) DRY            (1,2488) DRY            (1,2489)
     DRY            (1,2506) DRY            (1,2507) DRY            (1,2513) DRY            (1,2514) DRY            (1,2515)
     DRY            (1,2517) DRY            (1,2518) DRY            (1,2519) DRY            (1,2520) DRY            (1,2522)
     DRY            (1,2523) DRY            (1,2524) DRY            (1,2525) DRY            (1,2526) DRY            (1,2527)
     DRY            (1,2534) DRY            (1,2544) DRY            (1,2545) DRY            (1,2561) DRY            (1,2574)
     DRY            (1,2575) DRY            (1,2576) DRY            (1,2577) DRY            (1,2578) DRY            (1,2579)
     DRY            (1,2582) DRY            (1,2587) DRY            (1,2588) DRY            (1,2602) DRY            (1,2604)
     DRY            (1,2610) DRY            (1,2613) DRY            (1,2630) DRY            (1,2631) DRY            (1,2632)
     DRY            (1,2633) DRY            (1,2634) DRY            (1,2635) DRY            (1,2636) DRY            (1,2637)
     DRY            (1,2638) DRY            (1,2639) DRY            (1,2640) DRY            (1,2645) DRY            (1,2646)
     DRY            (1,2647) DRY            (1,2648) DRY            (1,2649) DRY            (1,2650) DRY            (1,2651)
     DRY            (1,2652) DRY            (1,2653) DRY            (1,2654) DRY            (1,2655) DRY            (1,2663)
     DRY            (1,2664) DRY            (1,2667) DRY            (1,2669) DRY            (1,2670) DRY            (1,2671)
     DRY            (1,2673) DRY            (1,2674) DRY            (1,2677) DRY            (1,2678) DRY            (1,2679)
     DRY            (1,2680) DRY            (1,2681) DRY            (1,2682) DRY            (1,2683) DRY            (1,2684)
     DRY            (1,2685) DRY            (1,2686) DRY            (1,2687) DRY            (1,2688) DRY            (1,2689)
     DRY            (1,2690) DRY            (1,2691) DRY            (1,2692) DRY            (1,2695) DRY            (1,2696)
     DRY            (1,2701) DRY            (1,2702) DRY            (1,2703) DRY            (1,2704) DRY            (1,2705)
     DRY            (1,2706) DRY            (1,2707) DRY            (1,2708) DRY            (1,2709) DRY            (1,2710)
     DRY            (1,2711) DRY            (1,2712) DRY            (1,2713) DRY            (1,2714) DRY            (1,2715)
     DRY            (1,2716) DRY            (1,2717) DRY            (1,2720) DRY            (1,2722) DRY            (1,2725)
     DRY            (1,2726) DRY            (1,2728) DRY            (1,2729) DRY            (1,2730) DRY            (1,2731)
     DRY            (1,2732) DRY            (1,2733) DRY            (1,2734) DRY            (1,2735) DRY            (1,2736)
     DRY            (1,2739) DRY            (1,2741) DRY            (1,2742) DRY            (1,2743) DRY            (1,2744)
     DRY            (1,2745) DRY            (1,2746) DRY            (1,2747) DRY            (1,2748) DRY            (1,2749)
     DRY            (1,2750) DRY            (1,2751) DRY            (1,2752) DRY            (1,2753) DRY            (1,2754)
     DRY            (1,2755) DRY            (1,2756) DRY            (1,2757) DRY            (1,2758) DRY            (1,2759)
     DRY            (1,2760) DRY            (1,2761) DRY            (1,2762) DRY            (1,2763) DRY            (1,2764)
     DRY            (1,2765) DRY            (1,2766) DRY            (1,2767) DRY            (1,2768) DRY            (1,2769)
     DRY            (1,2771) DRY            (1,2772) DRY            (1,2774) DRY            (1,2775) DRY            (1,2776)
     DRY            (1,2777) DRY            (1,2778) DRY            (1,2779) DRY            (1,2780) DRY            (1,2781)
     DRY            (1,2782) DRY            (1,2783) DRY            (1,2784) DRY            (1,2785) DRY            (1,2786)
     DRY            (1,2787) DRY            (1,2788) DRY            (1,2789) DRY            (1,2790) DRY            (1,2791)
     DRY            (1,2792) DRY            (1,2793) DRY            (1,2794) DRY            (1,2795) DRY            (1,2796)
     DRY            (1,2797) DRY            (1,2798) DRY            (1,2799) DRY            (1,2800) DRY            (1,2801)
     DRY            (1,2802) DRY            (1,2803) DRY            (1,2804) DRY            (1,2805) DRY            (1,2806)
     DRY            (1,2807) DRY            (1,2808) DRY            (1,2809) DRY            (1,2810) DRY            (1,2811)
     DRY            (1,2812) DRY            (1,2813) DRY            (1,2814) DRY            (1,2815) DRY            (1,2816)
     DRY            (1,2817) DRY            (1,2818) DRY            (1,2819) DRY            (1,2820) DRY            (1,2821)
     DRY            (1,2822) DRY            (1,2823) DRY            (1,2824) DRY            (1,2825) DRY            (1,2826)
     DRY            (1,2827) DRY            (1,2828) DRY            (1,2829) DRY            (1,2830) DRY            (1,2831)
     DRY            (1,2832) DRY            (1,2833) DRY            (1,2834) DRY            (1,2835) DRY            (1,2836)
     DRY            (1,2837) DRY            (1,2838) DRY            (1,2839) DRY            (1,2840) DRY            (1,2841)
     DRY            (1,2842) DRY            (1,2843) DRY            (1,2844) DRY            (1,2845) DRY            (1,2846)
     DRY            (1,2847) DRY            (1,2848) DRY            (1,2849) DRY            (1,2850) DRY            (1,2851)
     DRY            (1,2852) DRY            (1,2853) DRY            (1,2854) DRY            (1,2855) DRY            (1,2856)
     DRY            (1,2857) DRY            (1,2858) DRY            (1,2859) DRY            (1,2860) DRY            (1,2861)
     DRY            (1,2862) DRY            (1,2863) DRY            (1,2864) DRY            (1,2865) DRY            (1,2866)
     DRY            (1,2867) DRY            (1,2868) DRY            (1,2869) DRY            (1,2870) DRY            (1,2871)
     DRY            (1,2872) DRY            (1,2873) DRY            (1,2874) DRY            (1,2875) DRY            (1,2877)
     DRY            (1,2878) DRY            (1,2879) DRY            (1,2880) DRY            (1,2881) DRY            (1,2882)
     DRY            (1,2883) DRY            (1,2884) DRY            (1,2885) DRY            (1,2886) DRY            (1,2887)
     DRY            (1,2888) DRY            (1,2889) DRY            (1,2890) DRY            (1,2891) DRY            (1,2892)
     DRY            (1,2893) DRY            (1,2904) DRY            (1,2945) DRY            (1,2948) DRY            (1,2949)
     DRY            (1,2951) DRY            (1,2952) DRY            (1,2953) DRY            (1,2954) DRY            (1,2955)
     DRY            (1,2957) DRY            (1,2960) DRY            (1,2961) DRY            (1,2962) DRY            (1,2963)
     DRY            (1,2964) DRY            (1,2965) DRY            (1,2966) DRY            (1,2969) DRY            (1,2971)
     DRY            (1,2973) DRY            (1,2974) DRY            (1,2975) DRY            (1,2976) DRY            (1,2977)
     DRY            (1,2978) DRY            (1,2979) DRY            (1,2980) DRY            (1,2988) DRY            (1,3002)
     DRY            (1,3003) DRY            (1,3004) DRY            (1,3005) DRY            (1,3006) DRY            (1,3007)
     DRY            (1,3008) DRY            (1,3009) DRY            (1,3010) DRY            (1,3011) DRY            (1,3012)
     DRY            (1,3013) DRY            (1,3014) DRY            (1,3015) DRY            (1,3016) DRY            (1,3017)
     DRY            (1,3018) DRY            (1,3019) DRY            (1,3020) DRY            (1,3021) DRY            (1,3022)
     DRY            (1,3023) DRY            (1,3024) DRY            (1,3025) DRY            (1,3026) DRY            (1,3027)
     DRY            (1,3028) DRY            (1,3029) DRY            (1,3030) DRY            (1,3031) DRY            (1,3032)
     DRY            (1,3033) DRY            (1,3034) DRY            (1,3035) DRY            (1,3036) DRY            (1,3037)
     DRY            (1,3038) DRY            (1,3039) DRY            (1,3040) DRY            (1,3041) DRY            (1,3042)
     DRY            (1,3043) DRY            (1,3044) DRY            (1,3045) DRY            (1,3046) DRY            (1,3047)
     DRY            (1,3048) DRY            (1,3049) DRY            (1,3050) DRY            (1,3051) DRY            (1,3052)
     DRY            (1,3053) DRY            (1,3054) DRY            (1,3055) DRY            (1,3056) DRY            (1,3057)
     DRY            (1,3058) DRY            (1,3059) DRY            (1,3060) DRY            (1,3061) DRY            (1,3062)
     DRY            (1,3065) DRY            (1,3066) DRY            (1,3067) DRY            (1,3068) DRY            (1,3069)
     DRY            (1,3070) DRY            (1,3071) DRY            (1,3072) DRY            (1,3073) DRY            (1,3074)
     DRY            (1,3075) DRY            (1,3076) DRY            (1,3077) DRY            (1,3078) DRY            (1,3079)
     DRY            (1,3080) DRY            (1,3081) DRY            (1,3082) DRY            (1,3083) DRY            (1,3084)
     DRY            (1,3085) DRY            (1,3086) DRY            (1,3087) DRY            (1,3088) DRY            (1,3089)
     DRY            (1,3090) DRY            (1,3091) DRY            (1,3092) DRY            (1,3093) DRY            (1,3094)
     DRY            (1,3095) DRY            (1,3096) DRY            (1,3097) DRY            (1,3098) DRY            (1,3099)
     DRY            (1,3100) DRY            (1,3101) DRY            (1,3102) DRY            (1,3103) DRY            (1,3110)
     DRY            (1,3111) DRY            (1,3137) DRY            (1,3138) DRY            (1,3139) DRY            (1,3140)
     DRY            (1,3141) DRY            (1,3142) DRY            (1,3143) DRY            (1,3144) DRY            (1,3145)
     DRY            (1,3152) DRY            (1,3162) DRY            (1,3163) DRY            (1,3164) DRY            (1,3165)
     DRY            (1,3166) DRY            (1,3167) DRY            (1,3168) DRY            (1,3169) DRY            (1,3170)
     DRY            (1,3171) DRY            (1,3172) DRY            (1,3173) DRY            (1,3174) DRY            (1,3175)
     DRY            (1,3176) DRY            (1,3177) DRY            (1,3178) DRY            (1,3179) DRY            (1,3189)
     DRY            (1,3190) DRY            (1,3191) DRY            (1,3192) DRY            (1,3194) DRY            (1,3195)
     DRY            (1,3196) DRY            (1,3197) DRY            (1,3198) DRY            (1,3199) DRY            (1,3200)
     DRY            (1,3201) DRY            (1,3202) DRY            (1,3203) DRY            (1,3204) DRY            (1,3205)
     DRY            (1,3206) DRY            (1,3207) DRY            (1,3208) DRY            (1,3209) DRY            (1,3210)
     DRY            (1,3211) DRY            (1,3212) DRY            (1,3213) DRY            (1,3214) DRY            (1,3215)
     DRY            (1,3216) DRY            (1,3217) DRY            (1,3218) DRY            (1,3219) DRY            (1,3220)
     DRY            (1,3221) DRY            (1,3222) DRY            (1,3223) DRY            (1,3224) DRY            (1,3225)
     DRY            (1,3226) DRY            (1,3227) DRY            (1,3228) DRY            (1,3229) DRY            (1,3230)
     DRY            (1,3231) DRY            (1,3232) DRY            (1,3233) DRY            (1,3234) DRY            (1,3235)
     DRY            (1,3236) DRY            (1,3237) DRY            (1,3239) DRY            (1,3240) DRY            (1,3272)
     DRY            (1,3273) DRY            (1,3274) DRY            (1,3275) DRY            (1,3276) DRY            (1,3277)
     DRY            (1,3278) DRY            (1,3279) DRY            (1,3280) DRY            (1,3281) DRY            (1,3282)
     DRY            (1,3283) DRY            (1,3284) DRY            (1,3285) DRY            (1,3286) DRY            (1,3287)
     DRY            (1,3288) DRY            (1,3289) DRY            (1,3290) DRY            (1,3291) DRY            (1,3292)
     DRY            (1,3293) DRY            (1,3294) DRY            (1,3295) DRY            (1,3296) DRY            (1,3297)
     DRY            (1,3305) DRY            (1,3306) DRY            (1,3307) DRY            (1,3308) DRY            (1,3309)
     DRY            (1,3310) DRY            (1,3311) DRY            (1,3312) DRY            (1,3313) DRY            (1,3316)
     DRY            (1,3317) DRY            (1,3318) DRY            (1,3319) DRY            (1,3320) DRY            (1,3321)
     DRY            (1,3322) DRY            (1,3323) DRY            (1,3324) DRY            (1,3325) DRY            (1,3326)
     DRY            (1,3327) DRY            (1,3328) DRY            (1,3329) DRY            (1,3330) DRY            (1,3332)
     DRY            (1,3333) DRY            (1,3334) DRY            (1,3335) DRY            (1,3336) DRY            (1,3337)
     DRY            (1,3338) DRY            (1,3339) DRY            (1,3340) DRY            (1,3341) DRY            (1,3346)
     DRY            (1,3347) DRY            (1,3402) DRY            (1,3404) DRY            (1,3406) DRY            (1,3407)
     DRY            (1,3408) DRY            (1,3413) DRY            (1,3424) DRY            (1,3425) DRY            (1,3427)
     DRY            (1,3428) DRY            (1,3431) DRY            (1,3432) DRY            (1,3433) DRY            (1,3435)
     DRY            (1,3436) DRY            (1,3437) DRY            (1,3438) DRY            (1,3439) DRY            (1,3440)
     DRY            (1,3441) DRY            (1,3442) DRY            (1,3443) DRY            (1,3444) DRY            (1,3445)
     DRY            (1,3446) DRY            (1,3447) DRY            (1,3448) DRY            (1,3449) DRY            (1,3450)
     DRY            (1,3451) DRY            (1,3452) DRY            (1,3453) DRY            (1,3454) DRY            (1,3455)
     DRY            (1,3456) DRY            (1,3475) DRY            (1,3476) DRY            (1,3477) DRY            (1,3478)
     DRY            (1,3479) DRY            (1,3480) DRY            (1,3481) DRY            (1,3482) DRY            (1,3483)
     DRY            (1,3484) DRY            (1,3485) DRY            (1,3486) DRY            (1,3487) DRY            (1,3488)
     DRY            (1,3489) DRY            (1,3490) DRY            (1,3491) DRY            (1,3492) DRY            (1,3493)
     DRY            (1,3494) DRY            (1,3495) DRY            (1,3496) DRY            (1,3497) DRY            (1,3498)
     DRY            (1,3499) DRY            (1,3500) DRY            (1,3501) DRY            (1,3502) DRY            (1,3503)
     DRY            (1,3504) DRY            (1,3505) DRY            (1,3506) DRY            (1,3507) DRY            (1,3508)
     DRY            (1,3509) DRY            (1,3510) DRY            (1,3511) DRY            (1,3512) DRY            (1,3513)
     DRY            (1,3514) DRY            (1,3515) DRY            (1,3516) DRY            (1,3517) DRY            (1,3518)
     DRY            (1,3519) DRY            (1,3520) DRY            (1,3521) DRY            (1,3522) DRY            (1,3527)
     DRY            (1,3529) DRY            (1,3530) DRY            (1,3531) DRY            (1,3532) DRY            (1,3533)
     DRY            (1,3534) DRY            (1,3535) DRY            (1,3536) DRY            (1,3537) DRY            (1,3538)
     DRY            (1,3539) DRY            (1,3540) DRY            (1,3541) DRY            (1,3542) DRY            (1,3551)
     DRY            (1,3555) DRY            (1,3556) DRY            (1,3557) DRY            (1,3558) DRY            (1,3559)
     DRY            (1,3560) DRY            (1,3561) DRY            (1,3562) DRY            (1,3563) DRY            (1,3564)
     DRY            (1,3565) DRY            (1,3566) DRY            (1,3568) DRY            (1,3575) DRY            (1,3608)
     DRY            (1,3610) DRY            (1,3612) DRY            (1,3613) DRY            (1,3614) DRY            (1,3615)
     DRY            (1,3616) DRY            (1,3617) DRY            (1,3618) DRY            (1,3619) DRY            (1,3620)
     DRY            (1,3621) DRY            (1,3622) DRY            (1,3623) DRY            (1,3624) DRY            (1,3625)
     DRY            (1,3626) DRY            (1,3627) DRY            (1,3628) DRY            (1,3629) DRY            (1,3630)
     DRY            (1,3631) DRY            (1,3632) DRY            (1,3633) DRY            (1,3634) DRY            (1,3635)
     DRY            (1,3636) DRY            (1,3637) DRY            (1,3638) DRY            (1,3640) DRY            (1,3641)
     DRY            (1,3642) DRY            (1,3643) DRY            (1,3644) DRY            (1,3645) DRY            (1,3646)
     DRY            (1,3647) DRY            (1,3651) DRY            (1,3652) DRY            (1,3654) DRY            (1,3655)
     DRY            (1,3656) DRY            (1,3657) DRY            (1,3658) DRY            (1,3659) DRY            (1,3660)
     DRY            (1,3661) DRY            (1,3662) DRY            (1,3663) DRY            (1,3664) DRY            (1,3674)
     DRY            (1,3675) DRY            (1,3676) DRY            (1,3677) DRY            (1,3678) DRY            (1,3679)
     DRY            (1,3680) DRY            (1,3681) DRY            (1,3682) DRY            (1,3686) DRY            (1,3687)
     DRY            (1,3693) DRY            (1,3694) DRY            (1,3697) DRY            (1,3698) DRY            (1,3704)
     DRY            (1,3706) DRY            (1,3707) DRY            (1,3708) DRY            (1,3710) DRY            (1,3714)
     DRY            (1,3729) DRY            (1,3731) DRY            (1,3732) DRY            (1,3733) DRY            (1,3734)
     DRY            (1,3735) DRY            (1,3736) DRY            (1,3738) DRY            (1,3739) DRY            (1,3791)
     DRY            (1,3804) DRY            (1,3808) DRY            (1,3809) DRY            (1,3826) DRY            (1,3827)
     DRY            (1,3846) DRY            (1,3848) DRY            (1,3849) DRY            (1,3850) DRY            (1,3851)
     DRY            (1,3852) DRY            (1,3853) DRY            (1,3854) DRY            (1,3855) DRY            (1,3856)
     DRY            (1,3857) DRY            (1,3858) DRY            (1,3859) DRY            (1,3860) DRY            (1,3861)
     DRY            (1,3862) DRY            (1,3863) DRY            (1,3864) DRY            (1,3865) DRY            (1,3866)
     DRY            (1,3867) DRY            (1,3869) DRY            (1,3871) DRY            (1,3872) DRY            (1,3880)
     DRY            (1,3881) DRY            (1,3882) DRY            (1,3883) DRY            (1,3884) DRY            (1,3885)
     DRY            (1,3886) DRY            (1,3887) DRY            (1,3888) DRY            (1,3889) DRY            (1,3890)
     DRY            (1,3891) DRY            (1,3892) DRY            (1,3893) DRY            (1,3894) DRY            (1,3895)
     DRY            (1,3896) DRY            (1,3897) DRY            (1,3898) DRY            (1,3899) DRY            (1,3900)
     DRY            (1,3901) DRY            (1,3902) DRY            (1,3903) DRY            (1,3906) DRY            (1,3907)
     DRY            (1,3908) DRY            (1,3933) DRY            (1,3934) DRY            (1,3946) DRY            (1,3948)
     DRY            (1,3949) DRY            (1,3972) DRY            (1,3973) DRY            (1,3974) DRY            (1,3976)
     DRY            (1,3978) DRY            (1,3985) DRY            (1,3986) DRY            (1,3996) DRY            (1,3997)
     DRY            (1,3998) DRY            (1,3999) DRY            (1,4000) DRY            (1,4001) DRY            (1,4008)
     DRY            (1,4009) DRY            (1,4010) DRY            (1,4011) DRY            (1,4012) DRY            (1,4013)
     DRY            (1,4014) DRY            (1,4015) DRY            (1,4016) DRY            (1,4030) DRY            (1,4031)
     DRY            (1,4032) DRY            (1,4033) DRY            (1,4034) DRY            (1,4035) DRY            (1,4037)
     DRY            (1,4038) DRY            (1,4040) DRY            (1,4041) DRY            (1,4044) DRY            (1,4046)
     DRY            (1,4047) DRY            (1,4048) DRY            (1,4049) DRY            (1,4050) DRY            (1,4051)
     DRY            (1,4052) DRY            (1,4053) DRY            (1,4071) DRY            (1,4097) DRY            (1,4098)
     DRY            (1,4099) DRY            (1,4100) DRY            (1,4101) DRY            (1,4102) DRY            (1,4103)
     DRY            (1,4106) DRY            (1,4107) DRY            (1,4117) DRY            (1,4118) DRY            (1,4119)
     DRY            (1,4120) DRY            (1,4121) DRY            (1,4122) DRY            (1,4123) DRY            (1,4133)
     DRY            (1,4134) DRY            (1,4135) DRY            (1,4136) DRY            (1,4150) DRY            (1,4151)
     DRY            (1,4152) DRY            (1,4153) DRY            (1,4154) DRY            (1,4155) DRY            (1,4156)
     DRY            (1,4157) DRY            (1,4158) DRY            (1,4159) DRY            (1,4161) DRY            (1,4162)
     DRY            (1,4163) DRY            (1,4164) DRY            (1,4165) DRY            (1,4166) DRY            (1,4167)
     DRY            (1,4168) DRY            (1,4169) DRY            (1,4170) DRY            (1,4171) DRY            (1,4172)
     DRY            (1,4173) DRY            (1,4174) DRY            (1,4175) DRY            (1,4176) DRY            (1,4177)
     DRY            (1,4178) DRY            (1,4179) DRY            (1,4180) DRY            (1,4181) DRY            (1,4182)
     DRY            (1,4183) DRY            (1,4184) DRY            (1,4185) DRY            (1,4186) DRY            (1,4187)
     DRY            (1,4188) DRY            (1,4189) DRY            (1,4190) DRY            (1,4191) DRY            (1,4192)
     DRY            (1,4193) DRY            (1,4194) DRY            (1,4195) DRY            (1,4196) DRY            (1,4197)
     DRY            (1,4198) DRY            (1,4199) DRY            (1,4200) DRY            (1,4201) DRY            (1,4202)
     DRY            (1,4203) DRY            (1,4204) DRY            (1,4205) DRY            (1,4206) DRY            (1,4207)
     DRY            (1,4208) DRY            (1,4209) DRY            (1,4210) DRY            (1,4211) DRY            (1,4212)
     DRY            (1,4213) DRY            (1,4214) DRY            (1,4215) DRY            (1,4216) DRY            (1,4217)
     DRY            (1,4218) DRY            (1,4219) DRY            (1,4220) DRY            (1,4221) DRY            (1,4222)
     DRY            (1,4223) DRY            (1,4224) DRY            (1,4225) DRY            (1,4226) DRY            (1,4227)
     DRY            (1,4228) DRY            (1,4229) DRY            (1,4230) DRY            (1,4231) DRY            (1,4232)
     DRY            (1,4233) DRY            (1,4234) DRY            (1,4235) DRY            (1,4236) DRY            (1,4237)
     DRY            (1,4238) DRY            (1,4239) DRY            (1,4240) DRY            (1,4241) DRY            (1,4242)
     DRY            (1,4243) DRY            (1,4244) DRY            (1,4245) DRY            (1,4246) DRY            (1,4247)
     DRY            (1,4248) DRY            (1,4249) DRY            (1,4250) DRY            (1,4251) DRY            (1,4252)
     DRY            (1,4253) DRY            (1,4254) DRY            (1,4255) DRY            (1,4256) DRY            (1,4257)
     DRY            (1,4258) DRY            (1,4259) DRY            (1,4260) DRY            (1,4261) DRY            (1,4264)
     DRY            (1,4265) DRY            (1,4266) DRY            (1,4267) DRY            (1,4268) DRY            (1,4270)
     DRY            (1,4271) DRY            (1,4272) DRY            (1,4273) DRY            (1,4274) DRY            (1,4275)
     DRY            (1,4276) DRY            (1,4277) DRY            (1,4278) DRY            (1,4279) DRY            (1,4280)
     DRY            (1,4281) DRY            (1,4282) DRY            (1,4283) DRY            (1,4284) DRY            (1,4285)
     DRY            (1,4286) DRY            (1,4287) DRY            (1,4288) DRY            (1,4289) DRY            (1,4290)
     DRY            (1,4291) DRY            (1,4292) DRY            (1,4293) DRY            (1,4294) DRY            (1,4295)
     DRY            (1,4296) DRY            (1,4297) DRY            (1,4298) DRY            (1,4299) DRY            (1,4300)
     DRY            (1,4301) DRY            (1,4302) DRY            (1,4303) DRY            (1,4304) DRY            (1,4305)
     DRY            (1,4306) DRY            (1,4307) DRY            (1,4308) DRY            (1,4319) DRY            (1,4321)
     DRY            (1,4334) DRY            (1,4335) DRY            (1,4336) DRY            (1,4338) DRY            (1,4339)
     DRY            (1,4340) DRY            (1,4341) DRY            (1,4342) DRY            (1,4346) DRY            (1,4347)
     DRY            (1,4349) DRY            (1,4350) DRY            (1,4351) DRY            (1,4353) DRY            (1,4354)
     DRY            (1,4363) DRY            (1,4364) DRY            (1,4371) DRY            (1,4372) DRY            (1,4380)
     DRY            (1,4381) DRY            (1,4383) DRY            (1,4384) DRY            (1,4385) DRY            (1,4386)
     DRY            (1,4387) DRY            (1,4388) DRY            (1,4389) DRY            (1,4390) DRY            (1,4392)
     DRY            (1,4393) DRY            (1,4394) DRY            (1,4395) DRY            (1,4427) DRY            (1,4428)
     DRY            (1,4429) DRY            (1,4434) DRY            (1,4436) DRY            (1,4438) DRY            (1,4439)
     DRY            (1,4440) DRY            (1,4441) DRY            (1,4442) DRY            (1,4443) DRY            (1,4474)
     DRY            (1,4475) DRY            (1,4477) DRY            (1,4478) DRY            (1,4479) DRY            (1,4516)
     DRY            (1,4517) DRY            (1,4518) DRY            (1,4519) DRY            (1,4520) DRY            (1,4521)
     DRY            (1,4522) DRY            (1,4523) DRY            (1,4524) DRY            (1,4525) DRY            (1,4526)
     DRY            (1,4527) DRY            (1,4528) DRY            (1,4529) DRY            (1,4530) DRY            (1,4531)
     DRY            (1,4543) DRY            (1,4544) DRY            (1,4545) DRY            (1,4546) DRY            (1,4547)
     DRY            (1,4548) DRY            (1,4561) DRY            (1,4562) DRY            (1,4563) DRY            (1,4570)
     DRY            (1,4571) DRY            (1,4572) DRY            (1,4573) DRY            (1,4574) DRY            (1,4575)
     DRY            (1,4602) DRY            (1,4603) DRY            (1,4616) DRY            (1,4617) DRY            (1,4618)
[...]
     DRY           (3,21752) DRY           (3,21753) DRY           (3,21756) DRY           (3,21759) DRY           (3,21760)
     DRY           (3,21761) DRY           (3,21764) DRY           (3,21772) DRY           (3,21773) DRY           (3,21774)
     DRY           (3,21776) DRY           (3,21777) DRY           (3,21778) DRY           (3,21779) DRY           (3,21780)
     DRY           (3,21783) DRY           (3,21788) DRY           (3,21790) DRY           (3,21791) DRY           (3,21792)
     DRY           (3,21793) DRY             (4,821) DRY            (4,1632) DRY            (4,1741) DRY            (4,1863)
     DRY            (4,5353) DRY            (4,5360) DRY            (4,5361) DRY            (4,8440) DRY            (4,8442)
     DRY            (4,8446) DRY            (4,8474) DRY            (4,8481) DRY            (4,8853) DRY           (4,12846)
     DRY           (4,12850) DRY           (4,16350)

 CELL CONVERSIONS FOR ITER.=6  STEP=1  PERIOD=1   (NODE or LRC)
     DRY            (1,3354) DRY            (1,3376) DRY            (1,3399) DRY            (1,3400) DRY            (1,3434)
     DRY            (1,3931) DRY            (1,3980) DRY            (1,5241) DRY            (1,5408) DRY            (1,5720)
     DRY            (1,5847) DRY            (1,5858) DRY            (1,5895) DRY            (1,6824) DRY            (1,6854)
     DRY            (1,6858) DRY            (1,7069) DRY            (1,7097) DRY            (1,7125) DRY            (1,7228)
     DRY            (1,8108) DRY            (1,8400) DRY            (1,8401) DRY            (1,8405) DRY            (1,8986)
     DRY            (1,8989) DRY            (1,9112) DRY            (1,9148) DRY            (1,9179) DRY            (1,9187)
     DRY            (1,9195) DRY            (1,9211) DRY            (1,9216) DRY            (1,9269) DRY            (1,9273)
     DRY            (1,9278) DRY            (1,9280) DRY            (1,9302) DRY            (1,9304) DRY            (1,9542)
     DRY           (1,10396) DRY           (1,10461) DRY           (1,10464) DRY           (1,10505) DRY           (1,10520)
     DRY           (1,10718) DRY           (1,10727) DRY           (1,10745) DRY           (1,10768) DRY           (1,11804)
     DRY           (1,11810) DRY           (1,12256) DRY           (1,12265) DRY           (1,12590) DRY           (1,12782)
     DRY           (1,12943) DRY           (1,12956) DRY           (1,13011) DRY           (1,13012) DRY           (1,13033)
     DRY           (1,13036) DRY           (1,13041) DRY           (1,13042) DRY           (1,13043) DRY           (1,13045)
     DRY           (1,13061) DRY           (1,13062) DRY           (1,13068) DRY           (1,15828) DRY           (1,15831)
     DRY           (1,15837) DRY           (1,15920) DRY           (1,16125) DRY           (1,16158) DRY           (1,16307)
     DRY           (1,16381) DRY           (1,16411) DRY           (1,16424) DRY           (1,16431) DRY           (1,16453)
     DRY           (1,16459) DRY           (1,16460) DRY           (1,16461) DRY           (1,16462) DRY           (1,16465)
     DRY           (1,16466) DRY           (1,16477) DRY           (1,16478) DRY           (1,16479) DRY           (1,16482)
     DRY           (1,16483) DRY           (1,16484) DRY           (1,16485) DRY           (1,16539) DRY           (1,16540)
     DRY           (1,16596) DRY           (1,18073) DRY           (1,18074) DRY           (1,18076) DRY           (1,18077)
     DRY           (1,18087) DRY           (1,18088) DRY           (1,18089) DRY           (1,18090) DRY           (1,18091)
     DRY           (1,18092) DRY           (1,18093) DRY           (1,18094) DRY           (1,18097) DRY           (1,18098)
     DRY           (1,18100) DRY           (1,18101) DRY           (1,18378) DRY           (1,18379) DRY           (1,18380)
     DRY           (1,18487) DRY           (1,18729) DRY           (1,18829) DRY           (1,18838) DRY           (1,18855)
     DRY           (1,18901) DRY           (1,18967) DRY           (1,19037) DRY           (1,19860) DRY           (1,19865)
     DRY           (1,19867) DRY           (1,19868) DRY           (1,19869) DRY           (1,20035) DRY           (1,20036)
     DRY           (1,20037) DRY           (1,20715) DRY           (1,20874) DRY           (1,20877) DRY           (1,20880)
     DRY           (1,20976) DRY           (1,21288) DRY           (1,21393) DRY           (1,21400) DRY           (1,21610)
     DRY            (2,1738) DRY            (2,2049) DRY            (2,2910) DRY            (2,3258) DRY            (2,3921)
     DRY            (2,3940) DRY            (2,3958) DRY            (2,3992) DRY            (2,4131) DRY            (2,5060)
     DRY            (2,5327) DRY            (2,5330) DRY            (2,5590) DRY            (2,5906) DRY            (2,5907)
     DRY            (2,5911) DRY            (2,6795) DRY            (2,6859) DRY            (2,6949) DRY            (2,6951)
     DRY            (2,7095) DRY            (2,7100) DRY            (2,7223) DRY            (2,8114) DRY            (2,8350)
     DRY            (2,8562) DRY            (2,8563) DRY            (2,8657) DRY            (2,8982) DRY            (2,8995)
     DRY            (2,9137) DRY            (2,9158) DRY            (2,9162) DRY            (2,9164) DRY            (2,9185)
     DRY            (2,9231) DRY            (2,9265) DRY            (2,9266) DRY            (2,9271) DRY            (2,9279)
     DRY            (2,9282) DRY            (2,9283) DRY            (2,9285) DRY            (2,9287) DRY            (2,9498)
     DRY            (2,9504) DRY           (2,10311) DRY           (2,10463) DRY           (2,10750) DRY           (2,11805)
     DRY           (2,11808) DRY           (2,11809) DRY           (2,12260) DRY           (2,12344) DRY           (2,12411)
     DRY           (2,12819) DRY           (2,13010) DRY           (2,13011) DRY           (2,13012) DRY           (2,13013)
     DRY           (2,13015) DRY           (2,13020) DRY           (2,13021) DRY           (2,13022) DRY           (2,13027)
     DRY           (2,13028) DRY           (2,13029) DRY           (2,13031) DRY           (2,13033) DRY           (2,13034)
     DRY           (2,13035) DRY           (2,13036) DRY           (2,13037) DRY           (2,13038) DRY           (2,13039)
     DRY           (2,13040) DRY           (2,13041) DRY           (2,13042) DRY           (2,13053) DRY           (2,13065)
     DRY           (2,13093) DRY           (2,13125) DRY           (2,13351) DRY           (2,14484) DRY           (2,14867)
     DRY           (2,15488) DRY           (2,15829) DRY           (2,15830) DRY           (2,15832) DRY           (2,15834)
     DRY           (2,15836) DRY           (2,15997) DRY           (2,16147) DRY           (2,16221) DRY           (2,16300)
     DRY           (2,16409) DRY           (2,16425) DRY           (2,16429) DRY           (2,16430) DRY           (2,16431)
     DRY           (2,16432) DRY           (2,16433) DRY           (2,16435) DRY           (2,16437) DRY           (2,16438)
     DRY           (2,16439) DRY           (2,16444) DRY           (2,16445) DRY           (2,16446) DRY           (2,16450)
     DRY           (2,16452) DRY           (2,16453) DRY           (2,16454) DRY           (2,16456) DRY           (2,16457)
     DRY           (2,16458) DRY           (2,16471) DRY           (2,16472) DRY           (2,16480) DRY           (2,16481)
     DRY           (2,16531) DRY           (2,16533) DRY           (2,16534) DRY           (2,16535) DRY           (2,16536)
     DRY           (2,16537) DRY           (2,16538) DRY           (2,16544) DRY           (2,16546) DRY           (2,16548)
     DRY           (2,16597) DRY           (2,17470) DRY           (2,17510) DRY           (2,18090) DRY           (2,18095)
     DRY           (2,18096) DRY           (2,18099) DRY           (2,18478) DRY           (2,18576) DRY           (2,18666)
     DRY           (2,18803) DRY           (2,18809) DRY           (2,18812) DRY           (2,18813) DRY           (2,18827)
     DRY           (2,18828) DRY           (2,18832) DRY           (2,18857) DRY           (2,19861) DRY           (2,19862)
     DRY           (2,19864) DRY           (2,19865) DRY           (2,19866) DRY           (2,19867) DRY           (2,19868)
     DRY           (2,20069) DRY           (2,20075) DRY           (2,20085) DRY           (2,20277) DRY           (2,20293)
     DRY           (2,20302) DRY           (2,20712) DRY           (2,20713) DRY           (2,20722) DRY           (2,20876)
     DRY           (2,20878) DRY           (2,20914) DRY           (2,21158) DRY           (2,21162) DRY           (2,21163)
     DRY           (2,21164) DRY           (2,21319) DRY           (2,21322) DRY           (2,21390) DRY           (2,21512)
     DRY           (2,21631) DRY           (2,21684) DRY           (2,21688) DRY           (2,21689) DRY           (2,21733)
     DRY            (3,1737) DRY            (3,1740) DRY            (3,3403) DRY            (3,3409) DRY            (3,3410)
     DRY            (3,3412) DRY            (3,3413) DRY            (3,3415) DRY            (3,3418) DRY            (3,3420)
     DRY            (3,3422) DRY            (3,3423) DRY            (3,3429) DRY            (3,5238) DRY            (3,5283)
     DRY            (3,5844) DRY            (3,5845) DRY            (3,5926) DRY            (3,6399) DRY            (3,6400)
     DRY            (3,6405) DRY            (3,8103) DRY            (3,8105) DRY            (3,8106) DRY            (3,8353)
     DRY            (3,8545) DRY            (3,8547) DRY            (3,8548) DRY            (3,8549) DRY            (3,8550)
     DRY            (3,8551) DRY            (3,8552) DRY            (3,8553) DRY            (3,8859) DRY            (3,8860)
     DRY            (3,9150) DRY            (3,9152) DRY            (3,9154) DRY            (3,9159) DRY            (3,9173)
     DRY            (3,9177) DRY            (3,9260) DRY            (3,9261) DRY            (3,9262) DRY            (3,9263)
     DRY            (3,9264) DRY            (3,9286) DRY            (3,9293) DRY            (3,9301) DRY            (3,9949)
     DRY            (3,9952) DRY            (3,9954) DRY            (3,9957) DRY           (3,11801) DRY           (3,11833)
     DRY           (3,12254) DRY           (3,12484) DRY           (3,12485) DRY           (3,12486) DRY           (3,13024)
     DRY           (3,13094) DRY           (3,13118) DRY           (3,13119) DRY           (3,13121) DRY           (3,13131)
     DRY           (3,13825) DRY           (3,13830) DRY           (3,13833) DRY           (3,13837) DRY           (3,13841)
     DRY           (3,13842) DRY           (3,13847) DRY           (3,13848) DRY           (3,13863) DRY           (3,13865)
     DRY           (3,15461) DRY           (3,15469) DRY           (3,15470) DRY           (3,15477) DRY           (3,15486)
     DRY           (3,15487) DRY           (3,15489) DRY           (3,15498) DRY           (3,15500) DRY           (3,15503)
     DRY           (3,15504) DRY           (3,15744) DRY           (3,15821) DRY           (3,16042) DRY           (3,16071)
     DRY           (3,16072) DRY           (3,16073) DRY           (3,16074) DRY           (3,16075) DRY           (3,16076)
     DRY           (3,16077) DRY           (3,16332) DRY           (3,16333) DRY           (3,16406) DRY           (3,16441)
     DRY           (3,16455) DRY           (3,16469) DRY           (3,16473) DRY           (3,16475) DRY           (3,16953)
     DRY           (3,16954) DRY           (3,16955) DRY           (3,16956) DRY           (3,16957) DRY           (3,16958)
     DRY           (3,16960) DRY           (3,16961) DRY           (3,16963) DRY           (3,16964) DRY           (3,16965)
     DRY           (3,16966) DRY           (3,16967) DRY           (3,16968) DRY           (3,16971) DRY           (3,16972)
     DRY           (3,16982) DRY           (3,16984) DRY           (3,16985) DRY           (3,16989) DRY           (3,17009)
     DRY           (3,18079) DRY           (3,18080) DRY           (3,18085) DRY           (3,18104) DRY           (3,18105)
     DRY           (3,18106) DRY           (3,18108) DRY           (3,18109) DRY           (3,18111) DRY           (3,18333)
     DRY           (3,18550) DRY           (3,18551) DRY           (3,18552) DRY           (3,18553) DRY           (3,18555)
     DRY           (3,18556) DRY           (3,18767) DRY           (3,18804) DRY           (3,18807) DRY           (3,18815)
     DRY           (3,18819) DRY           (3,18820) DRY           (3,18835) DRY           (3,19136) DRY           (3,19139)
     DRY           (3,19140) DRY           (3,19141) DRY           (3,19142) DRY           (3,19145) DRY           (3,19146)
     DRY           (3,19147) DRY           (3,19506) DRY           (3,19854) DRY           (3,19855) DRY           (3,19874)
     DRY           (3,19875) DRY           (3,19878) DRY           (3,19885) DRY           (3,19930) DRY           (3,19932)
     DRY           (3,20063) DRY           (3,20081) DRY           (3,20083) DRY           (3,20104) DRY           (3,20105)
     DRY           (3,20106) DRY           (3,20107) DRY           (3,20108) DRY           (3,20109) DRY           (3,20110)
     DRY           (3,20111) DRY           (3,20112) DRY           (3,20113) DRY           (3,20114) DRY           (3,20115)
     DRY           (3,20116) DRY           (3,20119) DRY           (3,20214) DRY           (3,20255) DRY           (3,20717)
     DRY           (3,20718) DRY           (3,20868) DRY           (3,20870) DRY           (3,20910) DRY           (3,20915)
     DRY           (3,20916) DRY           (3,20951) DRY           (3,20954) DRY           (3,20968) DRY           (3,20969)
     DRY           (3,21110) DRY           (3,21166) DRY           (3,21175) DRY           (3,21305) DRY           (3,21307)
     DRY           (3,21314) DRY           (3,21353) DRY           (3,21357) DRY           (3,21358) DRY           (3,21386)
     DRY           (3,21445) DRY           (3,21446) DRY           (3,21516) DRY           (3,21519) DRY           (3,21524)
     DRY           (3,21619) DRY           (3,21632) DRY           (3,21637) DRY           (3,21638) DRY           (3,21639)
     DRY           (3,21706) DRY           (3,21708) DRY           (3,21724) DRY           (3,21736) DRY           (3,21737)
     DRY           (3,21738) DRY           (3,21748) DRY           (3,21749) DRY           (3,21750) DRY           (3,21754)
     DRY           (3,21755) DRY           (3,21757) DRY            (4,3433) DRY            (4,8472) DRY            (4,8482)
     DRY            (4,8483) DRY            (4,8851) DRY            (4,9255) DRY            (4,9299) DRY           (4,12392)
     DRY           (4,12393) DRY           (4,12847) DRY           (4,12851) DRY           (4,13103) DRY           (4,15921)
     DRY           (4,15925) DRY           (4,15927) DRY           (4,15965) DRY           (4,15968) DRY           (4,15969)
     DRY           (4,15970) DRY           (4,16525) DRY           (4,16526) DRY           (4,18428) DRY           (4,18429)

 CELL CONVERSIONS FOR ITER.=7  STEP=1  PERIOD=1   (NODE or LRC)
     DRY            (1,2901) DRY            (1,3370) DRY            (1,3373) DRY            (1,5233) DRY            (1,5852)
     DRY            (1,5894) DRY            (1,5915) DRY            (1,9237) DRY            (1,9238) DRY            (1,9281)
     DRY           (1,13057) DRY           (1,13069) DRY           (1,13142) DRY           (1,16463) DRY           (1,16543)
     DRY           (1,16603) DRY           (1,18902) DRY           (1,20299) DRY           (1,20879) DRY           (1,21296)
     DRY            (2,3398) DRY            (2,5859) DRY            (2,8109) DRY            (2,8113) DRY            (2,9168)
     DRY            (2,9184) DRY            (2,9187) DRY            (2,9236) DRY            (2,9278) DRY           (2,13044)
     DRY           (2,13190) DRY           (2,13197) DRY           (2,16091) DRY           (2,16539) DRY           (2,16542)
     DRY           (2,20881) DRY           (2,20882) DRY           (2,21289) DRY           (2,21294) DRY            (3,3417)
     DRY            (3,5914) DRY            (3,9170) DRY            (3,9340) DRY           (3,13056) DRY           (3,15473)
     DRY           (3,16547) DRY           (3,18081) DRY           (3,20864)

 CELL CONVERSIONS FOR ITER.=8  STEP=1  PERIOD=1   (NODE or LRC)
     DRY           (1,20126) DRY           (1,20860) DRY           (1,21287) DRY           (2,20278)

 CELL CONVERSIONS FOR ITER.=9  STEP=1  PERIOD=1   (NODE or LRC)
     DRY           (1,16016) DRY           (2,16090)
 UBDSV1 SAVING     FLOW-JA-FACE ON UNIT   1014 AT TIME STEP      1, STRESS PERIOD      1
 UBDSV06 SAVING       DATA-SPDIS IN MODEL MODEL            PACKAGE NPF             CONNECTED TO MODEL MODEL            PACKAGE NPF              ON UNIT   1014 AT TIME STEP      1, STRESS PERIOD      1
 UBDSV06 SAVING              DRN IN MODEL MODEL            PACKAGE MODEL           CONNECTED TO MODEL MODEL            PACKAGE DRN_0            ON UNIT   1014 AT TIME STEP      1, STRESS PERIOD      1
 UBDSV06 SAVING              RCH IN MODEL MODEL            PACKAGE MODEL           CONNECTED TO MODEL MODEL            PACKAGE RCHA             ON UNIT   1014 AT TIME STEP      1, STRESS PERIOD      1
 UBDSV06 SAVING              EVT IN MODEL MODEL            PACKAGE MODEL           CONNECTED TO MODEL MODEL            PACKAGE EVTA             ON UNIT   1014 AT TIME STEP      1, STRESS PERIOD      1

         ****FAILED TO MEET SOLVER CONVERGENCE CRITERIA IN TIME STEP 1 OF STRESS PERIOD 1****

 HEAD WILL BE SAVED ON UNIT 1015 AT END OF TIME STEP    1, STRESS PERIOD    1


  VOLUME BUDGET FOR ENTIRE MODEL AT END OF TIME STEP    1, STRESS PERIOD   1
  ---------------------------------------------------------------------------------------------------

     CUMULATIVE VOLUME      L**3       RATES FOR THIS TIME STEP      L**3/T          PACKAGE NAME    
     ------------------                 ------------------------                     ----------------

           IN:                                      IN:
           ---                                      ---
                 DRN =           0.0000                   DRN =           0.0000     DRN_0           
                 RCH =           1.2178                   RCH =           1.2178     RCHA            
                 EVT =           0.0000                   EVT =           0.0000     EVTA            

            TOTAL IN =           1.2178              TOTAL IN =           1.2178

          OUT:                                     OUT:
          ----                                     ----
                 DRN =           1.0327                   DRN =           1.0327     DRN_0           
                 RCH =           0.0000                   RCH =           0.0000     RCHA            
                 EVT =           0.1861                   EVT =           0.1861     EVTA            

           TOTAL OUT =           1.2188             TOTAL OUT =           1.2188

            IN - OUT =      -9.7562E-04              IN - OUT =      -9.7562E-04

 PERCENT DISCREPANCY =          -0.08     PERCENT DISCREPANCY =          -0.08




         TIME SUMMARY AT END OF TIME STEP    1 IN STRESS PERIOD    1
                    SECONDS     MINUTES      HOURS       DAYS        YEARS
                    -----------------------------------------------------------
   TIME STEP LENGTH  1.0000     1.66667E-02 2.77778E-04 1.15741E-05 3.16881E-08
 STRESS PERIOD TIME  1.0000     1.66667E-02 2.77778E-04 1.15741E-05 3.16881E-08
         TOTAL TIME  1.0000     1.66667E-02 2.77778E-04 1.15741E-05 3.16881E-08
